LTspice 24.0.12 for Windows
Circuit: * C:\Users\LeeFE\Desktop\Bruxism_Biofeedback\sims\bioamplifier.asc
Start Time: Tue Oct 22 11:13:28 2024
solver = Normal
Maximum thread count: 20
tnom = 27
temp = 27
method = modified trap
v1: Removing PWL point (0.007,1e-05)
v1: Removing PWL point (0.019,-1e-05)
v1: Removing PWL point (0.048,-2e-05)
v1: Removing PWL point (0.055,3e-05)
v1: Removing PWL point (0.064,-8e-05)
v1: Removing PWL point (0.09,0)
v1: Removing PWL point (0.102,-3e-05)
v1: Removing PWL point (0.107,0)
v1: Removing PWL point (0.124,2e-05)
v1: Removing PWL point (0.14,1e-05)
v1: Removing PWL point (0.153,-5e-05)
v1: Removing PWL point (0.161,0)
v1: Removing PWL point (0.176,-2e-05)
v1: Removing PWL point (0.184,-1e-05)
v1: Removing PWL point (0.199,-3e-05)
v1: Removing PWL point (0.205,0)
v1: Removing PWL point (0.221,-1e-05)
v1: Removing PWL point (0.227,-2e-05)
v1: Removing PWL point (0.253,-2e-05)
v1: Removing PWL point (0.258,3e-05)
v1: Removing PWL point (0.265,-1e-05)
v1: Removing PWL point (0.281,0)
v1: Removing PWL point (0.305,-4e-05)
v1: Removing PWL point (0.318,-2e-05)
v1: Removing PWL point (0.325,2e-05)
v1: Removing PWL point (0.343,0)
v1: Removing PWL point (0.356,4e-05)
v1: Removing PWL point (0.382,0)
v1: Removing PWL point (0.386,-1e-05)
v1: Removing PWL point (0.401,0)
v1: Removing PWL point (0.433,-1e-05)
v1: Removing PWL point (0.455,-3e-05)
v1: Removing PWL point (0.461,-1e-05)
v1: Removing PWL point (0.509,-5e-05)
v1: Removing PWL point (0.53,-7e-05)
v1: Removing PWL point (0.544,1e-05)
v1: Removing PWL point (0.56,0)
v1: Removing PWL point (0.583,-1e-05)
v1: Removing PWL point (0.588,0)
v1: Removing PWL point (0.603,-2e-05)
v1: Removing PWL point (0.61,-3e-05)
v1: Removing PWL point (0.634,-6e-05)
v1: Removing PWL point (0.657,-1e-05)
v1: Removing PWL point (0.664,4e-05)
v1: Removing PWL point (0.679,-1e-05)
v1: Removing PWL point (0.685,2e-05)
v1: Removing PWL point (0.709,-1e-05)
v1: Removing PWL point (0.733,2e-05)
v1: Removing PWL point (0.74,-5e-05)
v1: Removing PWL point (0.745,-1e-05)
v1: Removing PWL point (0.762,0)
v1: Removing PWL point (0.789,-1e-05)
v1: Removing PWL point (0.808,-3e-05)
v1: Removing PWL point (0.82,-1e-05)
v1: Removing PWL point (0.828,2e-05)
v1: Removing PWL point (0.844,-4e-05)
v1: Removing PWL point (0.859,2e-05)
v1: Removing PWL point (0.865,-1e-05)
v1: Removing PWL point (0.88,-6e-05)
v1: Removing PWL point (0.889,-1e-05)
v1: Removing PWL point (0.911,0)
v1: Removing PWL point (0.919,-4e-05)
v1: Removing PWL point (0.925,0)
v1: Removing PWL point (0.94,-4e-05)
v1: Removing PWL point (0.947,-1e-05)
v1: Removing PWL point (0.964,1e-05)
v1: Removing PWL point (0.99,1e-05)
v1: Removing PWL point (1.01,-3e-05)
v1: Removing PWL point (1.022,1e-05)
v1: Removing PWL point (1.03,-1e-05)
v1: Removing PWL point (1.04,1e-05)
v1: Removing PWL point (1.048,-1e-05)
v1: Removing PWL point (1.06,1e-05)
v1: Removing PWL point (1.067,-1e-05)
v1: Removing PWL point (1.084,-3e-05)
v1: Removing PWL point (1.09,-2e-05)
v1: Removing PWL point (1.114,-1e-05)
v1: Removing PWL point (1.128,0)
v1: Removing PWL point (1.142,-6e-05)
v1: Removing PWL point (1.15,-1e-05)
v1: Removing PWL point (1.168,-1e-05)
v1: Removing PWL point (1.18,-2e-05)
v1: Removing PWL point (1.211,0)
v1: Removing PWL point (1.226,0)
v1: Removing PWL point (1.241,-6e-05)
v1: Removing PWL point (1.247,-2e-05)
v1: Removing PWL point (1.264,2e-05)
v1: Removing PWL point (1.292,-4e-05)
v1: Removing PWL point (1.3,-1e-05)
v1: Removing PWL point (1.316,0)
v1: Removing PWL point (1.324,-3e-05)
v1: Removing PWL point (1.339,1e-05)
v1: Removing PWL point (1.346,0)
v1: Removing PWL point (1.362,-1e-05)
v1: Removing PWL point (1.367,1e-05)
v1: Removing PWL point (1.391,2e-05)
v1: Removing PWL point (1.416,-4e-05)
v1: Removing PWL point (1.42,0)
v1: Removing PWL point (1.427,1e-05)
v1: Removing PWL point (1.442,0)
v1: Removing PWL point (1.467,-3e-05)
v1: Removing PWL point (1.49,0)
v1: Removing PWL point (1.502,3e-05)
v1: Removing PWL point (1.518,2e-05)
v1: Removing PWL point (1.526,-2e-05)
v1: Removing PWL point (1.543,0)
v1: Removing PWL point (1.565,-3e-05)
v1: Removing PWL point (1.57,-1e-05)
v1: Removing PWL point (1.586,-2e-05)
v1: Removing PWL point (1.62,0)
v1: Removing PWL point (1.64,-3e-05)
v1: Removing PWL point (1.646,-1e-05)
v1: Removing PWL point (1.669,0)
v1: Removing PWL point (1.691,-2e-05)
v1: Removing PWL point (1.706,-1e-05)
v1: Removing PWL point (1.72,1e-05)
v1: Removing PWL point (1.727,0)
v1: Removing PWL point (1.75,-1e-05)
v1: Removing PWL point (1.768,-2e-05)
v1: Removing PWL point (1.78,2e-05)
v1: Removing PWL point (1.795,-1e-05)
v1: Removing PWL point (1.802,-2e-05)
v1: Removing PWL point (1.81,-3e-05)
v1: Removing PWL point (1.826,-2e-05)
v1: Removing PWL point (1.847,0)
v1: Removing PWL point (1.862,-2e-05)
v1: Removing PWL point (1.87,2e-05)
v1: Removing PWL point (1.886,1e-05)
v1: Removing PWL point (1.9,-3e-05)
v1: Removing PWL point (1.915,-1e-05)
v1: Removing PWL point (1.922,-2e-05)
v1: Removing PWL point (1.93,0)
v1: Removing PWL point (1.945,-2e-05)
v1: Removing PWL point (1.953,-3e-05)
v1: Removing PWL point (1.967,-2e-05)
v1: Removing PWL point (1.982,-5e-05)
v1: Removing PWL point (1.998,-2e-05)
v1: Removing PWL point (2.005,-1e-05)
v1: Removing PWL point (2.013,-3e-05)
v1: Removing PWL point (2.021,1e-05)
v1: Removing PWL point (2.027,0)
v1: Removing PWL point (2.044,1e-05)
v1: Removing PWL point (2.05,-1e-05)
v1: Removing PWL point (2.065,3e-05)
v1: Removing PWL point (2.073,-2e-05)
v1: Removing PWL point (2.089,2e-05)
v1: Removing PWL point (2.095,1e-05)
v1: Removing PWL point (2.102,3e-05)
v1: Removing PWL point (2.119,-1e-05)
v1: Removing PWL point (2.125,-2e-05)
v1: Removing PWL point (2.133,-4e-05)
v1: Removing PWL point (2.149,0)
v1: Removing PWL point (2.171,2e-05)
v1: Removing PWL point (2.194,-0.0001)
v1: Removing PWL point (2.209,3e-05)
v1: Removing PWL point (2.222,-4e-05)
v1: Removing PWL point (2.23,-2e-05)
v1: Removing PWL point (2.246,0)
v1: Removing PWL point (2.253,-2e-05)
v1: Removing PWL point (2.269,-1e-05)
v1: Removing PWL point (2.282,0)
v1: Removing PWL point (2.298,2e-05)
v1: Removing PWL point (2.305,-4e-05)
v1: Removing PWL point (2.314,-3e-05)
v1: Removing PWL point (2.328,2e-05)
v1: Removing PWL point (2.342,-5e-05)
v1: Removing PWL point (2.351,5e-05)
v1: Removing PWL point (2.374,-3e-05)
v1: Removing PWL point (2.397,0)
v1: Removing PWL point (2.402,-2e-05)
v1: Removing PWL point (2.41,0)
v1: Removing PWL point (2.425,-1e-05)
v1: Removing PWL point (2.433,-2e-05)
v1: Removing PWL point (2.449,-6e-05)
v1: Removing PWL point (2.462,-1e-05)
v1: Removing PWL point (2.47,-3e-05)
v1: Removing PWL point (2.485,0)
v1: Removing PWL point (2.493,-2e-05)
v1: Removing PWL point (2.508,1e-05)
v1: Removing PWL point (2.522,-3e-05)
v1: Removing PWL point (2.545,0)
v1: Removing PWL point (2.553,-5e-05)
v1: Removing PWL point (2.577,2e-05)
v1: Removing PWL point (2.582,0)
v1: Removing PWL point (2.598,2e-05)
v1: Removing PWL point (2.605,-2e-05)
v1: Removing PWL point (2.613,1e-05)
v1: Removing PWL point (2.628,-1e-05)
v1: Removing PWL point (2.642,1e-05)
v1: Removing PWL point (2.65,3e-05)
v1: Removing PWL point (2.674,-1e-05)
v1: Removing PWL point (2.689,-5e-05)
v1: Removing PWL point (2.704,0)
v1: Removing PWL point (2.749,-3e-05)
v1: Removing PWL point (2.762,-4e-05)
v1: Removing PWL point (2.77,0)
v1: Removing PWL point (2.794,3e-05)
v1: Removing PWL point (2.808,-1e-05)
v1: Removing PWL point (2.822,-2e-05)
v1: Removing PWL point (2.83,2e-05)
v1: Removing PWL point (2.853,-1e-05)
v1: Removing PWL point (2.89,-6e-05)
v1: Removing PWL point (2.905,0)
v1: Removing PWL point (2.913,-1e-05)
v1: Removing PWL point (2.927,-2e-05)
v1: Removing PWL point (2.942,-7e-05)
v1: Removing PWL point (2.95,0)
v1: Removing PWL point (2.965,2e-05)
v1: Removing PWL point (2.973,0)
v1: Removing PWL point (2.988,1e-05)
v1: Removing PWL point (2.996,0)
v1: Removing PWL point (3.004,0)
v1: Removing PWL point (3.01,-2e-05)
v1: Removing PWL point (3.025,2e-05)
v1: Removing PWL point (3.033,-2e-05)
v1: Removing PWL point (3.047,1e-05)
v1: Removing PWL point (3.055,-1e-05)
v1: Removing PWL point (3.08,-2e-05)
v1: Removing PWL point (3.085,0)
v1: Removing PWL point (3.094,-4e-05)
v1: Removing PWL point (3.107,-2e-05)
v1: Removing PWL point (3.133,-3e-05)
v1: Removing PWL point (3.155,1e-05)
v1: Removing PWL point (3.167,-1e-05)
v1: Removing PWL point (3.193,-1e-05)
v1: Removing PWL point (3.205,-4e-05)
v1: Removing PWL point (3.237,-1e-05)
v1: Removing PWL point (3.251,0)
v1: Removing PWL point (3.257,2e-05)
v1: Removing PWL point (3.265,-3e-05)
v1: Removing PWL point (3.304,0)
v1: Removing PWL point (3.313,1e-05)
v1: Removing PWL point (3.335,-1e-05)
v1: Removing PWL point (3.356,-2e-05)
v1: Removing PWL point (3.372,5e-05)
v1: Removing PWL point (3.385,-2e-05)
v1: Removing PWL point (3.409,-1e-05)
v1: Removing PWL point (3.433,-3e-05)
v1: Removing PWL point (3.453,-1e-05)
v1: Removing PWL point (3.485,-3e-05)
v1: Removing PWL point (3.492,-2e-05)
v1: Removing PWL point (3.505,2e-05)
v1: Removing PWL point (3.514,-4e-05)
v1: Removing PWL point (3.527,-2e-05)
v1: Removing PWL point (3.536,0)
v1: Removing PWL point (3.56,1e-05)
v1: Removing PWL point (3.565,-3e-05)
v1: Removing PWL point (3.581,3e-05)
v1: Removing PWL point (3.589,-1e-05)
v1: Removing PWL point (3.596,-2e-05)
v1: Removing PWL point (3.613,-1e-05)
v1: Removing PWL point (3.635,-2e-05)
v1: Removing PWL point (3.647,2e-05)
v1: Removing PWL point (3.664,-1e-05)
v1: Removing PWL point (3.709,-3e-05)
v1: Removing PWL point (3.716,-2e-05)
v1: Removing PWL point (3.73,1e-05)
v1: Removing PWL point (3.74,-3e-05)
v1: Removing PWL point (3.745,-6e-05)
v1: Removing PWL point (3.754,-1e-05)
v1: Removing PWL point (3.767,-2e-05)
v1: Removing PWL point (3.784,-1e-05)
v1: Removing PWL point (3.791,1e-05)
v1: Removing PWL point (3.805,-1e-05)
v1: Removing PWL point (3.82,-2e-05)
v1: Removing PWL point (3.836,0)
v1: Removing PWL point (3.858,1e-05)
v1: Removing PWL point (3.868,1e-05)
v1: Removing PWL point (3.874,-3e-05)
v1: Removing PWL point (3.889,-2e-05)
v1: Removing PWL point (3.902,2e-05)
v1: Removing PWL point (3.91,-3e-05)
v1: Removing PWL point (3.925,1e-05)
v1: Removing PWL point (3.947,-1e-05)
v1: Removing PWL point (3.962,-4e-05)
v1: Removing PWL point (3.971,0)
v1: Removing PWL point (3.986,-1e-05)
v1: Removing PWL point (4.007,1e-05)
v1: Removing PWL point (4.016,7e-05)
v1: Removing PWL point (4.031,0)
v1: Removing PWL point (4.039,1e-05)
v1: Removing PWL point (4.062,-2e-05)
v1: Removing PWL point (4.067,-5e-05)
v1: Removing PWL point (4.076,-1e-05)
v1: Removing PWL point (4.09,1e-05)
v1: Removing PWL point (4.097,-4e-05)
v1: Removing PWL point (4.115,-1e-05)
v1: Removing PWL point (4.139,-6e-05)
v1: Removing PWL point (4.15,1e-05)
v1: Removing PWL point (4.165,-3e-05)
v1: Removing PWL point (4.175,-1e-05)
v1: Removing PWL point (4.188,0)
v1: Removing PWL point (4.196,2e-05)
v1: Removing PWL point (4.21,0)
v1: Removing PWL point (4.217,-1e-05)
v1: Removing PWL point (4.234,-2e-05)
v1: Removing PWL point (4.241,-1e-05)
v1: Removing PWL point (4.248,-2e-05)
v1: Removing PWL point (4.27,-4e-05)
v1: Removing PWL point (4.277,-3e-05)
v1: Removing PWL point (4.293,1e-05)
v1: Removing PWL point (4.308,-2e-05)
v1: Removing PWL point (4.341,-3e-05)
v1: Removing PWL point (4.355,0)
v1: Removing PWL point (4.367,-3e-05)
v1: Removing PWL point (4.376,1e-05)
v1: Removing PWL point (4.39,6e-05)
v1: Removing PWL point (4.417,-2e-05)
v1: Removing PWL point (4.428,0)
v1: Removing PWL point (4.435,-3e-05)
v1: Removing PWL point (4.451,-2e-05)
v1: Removing PWL point (4.459,0)
v1: Removing PWL point (4.475,-1e-05)
v1: Removing PWL point (4.489,-2e-05)
v1: Removing PWL point (4.495,-6e-05)
v1: Removing PWL point (4.511,-1e-05)
v1: Removing PWL point (4.519,-1e-05)
v1: Removing PWL point (4.541,-2e-05)
v1: Removing PWL point (4.547,0)
v1: Removing PWL point (4.577,2e-05)
v1: Removing PWL point (4.595,-2e-05)
v1: Removing PWL point (4.607,-3e-05)
v1: Removing PWL point (4.616,1e-05)
v1: Removing PWL point (4.63,0)
v1: Removing PWL point (4.638,-3e-05)
v1: Removing PWL point (4.656,2e-05)
v1: Removing PWL point (4.668,-1e-05)
v1: Removing PWL point (4.676,0)
v1: Removing PWL point (4.69,-2e-05)
v1: Removing PWL point (4.697,-4e-05)
v1: Removing PWL point (4.715,-1e-05)
v1: Removing PWL point (4.727,2e-05)
v1: Removing PWL point (4.742,1e-05)
v1: Removing PWL point (4.75,-2e-05)
v1: Removing PWL point (4.757,0)
v1: Removing PWL point (4.773,2e-05)
v1: Removing PWL point (4.779,-2e-05)
v1: Removing PWL point (4.788,1e-05)
v1: Removing PWL point (4.82,-2e-05)
v1: Removing PWL point (4.839,-5e-05)
v1: Removing PWL point (4.847,0)
v1: Removing PWL point (4.856,-3e-05)
v1: Removing PWL point (4.87,-1e-05)
v1: Removing PWL point (4.877,2e-05)
v1: Removing PWL point (4.893,3e-05)
v1: Removing PWL point (4.899,-4e-05)
v1: Removing PWL point (4.907,3e-05)
v1: Removing PWL point (4.923,0)
v1: Removing PWL point (4.93,-2e-05)
v1: Removing PWL point (4.945,-3e-05)
v1: Removing PWL point (4.953,-2e-05)
v1: Removing PWL point (4.978,-1e-05)
v1: Removing PWL point (5,-2e-05)
v1: Removing PWL point (5.013,-3e-05)
v1: Removing PWL point (5.019,1e-05)
v1: Removing PWL point (5.038,0)
v1: Removing PWL point (5.05,-6e-05)
v1: Removing PWL point (5.057,1e-05)
v1: Removing PWL point (5.073,-2e-05)
v1: Removing PWL point (5.08,-9e-05)
v1: Removing PWL point (5.096,1e-05)
v1: Removing PWL point (5.11,-3e-05)
v1: Removing PWL point (5.117,2e-05)
v1: Removing PWL point (5.149,0)
v1: Removing PWL point (5.158,-1e-05)
v1: Removing PWL point (5.178,0)
v1: Removing PWL point (5.193,-3e-05)
v1: Removing PWL point (5.2,2e-05)
v1: Removing PWL point (5.226,-5e-05)
v1: Removing PWL point (5.231,2e-05)
v1: Removing PWL point (5.254,0)
v1: Removing PWL point (5.259,-2e-05)
v1: Removing PWL point (5.278,-3e-05)
v1: Removing PWL point (5.3,0)
v1: Removing PWL point (5.328,1e-05)
v1: Removing PWL point (5.336,-1e-05)
v1: Removing PWL point (5.353,-4e-05)
v1: Removing PWL point (5.374,-2e-05)
v1: Removing PWL point (5.379,0)
v1: Removing PWL point (5.395,-3e-05)
v1: Removing PWL point (5.403,0)
v1: Removing PWL point (5.41,-1e-05)
v1: Removing PWL point (5.424,2e-05)
v1: Removing PWL point (5.433,-2e-05)
v1: Removing PWL point (5.448,-1e-05)
v1: Removing PWL point (5.458,2e-05)
v1: Removing PWL point (5.469,-1e-05)
v1: Removing PWL point (5.501,-2e-05)
v1: Removing PWL point (5.523,0)
v1: Removing PWL point (5.529,-1e-05)
v1: Removing PWL point (5.539,2e-05)
v1: Removing PWL point (5.553,-2e-05)
v1: Removing PWL point (5.579,-2e-05)
v1: Removing PWL point (5.604,-3e-05)
v1: Removing PWL point (5.613,2e-05)
v1: Removing PWL point (5.628,-4e-05)
v1: Removing PWL point (5.636,5e-05)
v1: Removing PWL point (5.65,4e-05)
v1: Removing PWL point (5.659,-9e-05)
v1: Removing PWL point (5.682,0)
v1: Removing PWL point (5.703,9e-05)
v1: Removing PWL point (5.727,5e-05)
v1: Removing PWL point (5.734,4e-05)
v1: Removing PWL point (5.74,-0.00011)
v1: Removing PWL point (5.756,-5e-05)
v1: Removing PWL point (5.779,4e-05)
v1: Removing PWL point (5.782,-6e-05)
v1: Removing PWL point (5.803,-1e-05)
v1: Removing PWL point (5.815,-0.00015)
v1: Removing PWL point (5.831,-1e-05)
v1: Removing PWL point (5.839,0.00036)
v1: Removing PWL point (5.855,0.00017)
v1: Removing PWL point (5.86,3e-05)
v1: Removing PWL point (5.875,5e-05)
v1: Removing PWL point (5.882,-0.00025)
v1: Removing PWL point (5.906,0.00012)
v1: Removing PWL point (5.914,-9e-05)
v1: Removing PWL point (5.928,-1e-05)
v1: Removing PWL point (5.935,-9e-05)
v1: Removing PWL point (5.942,7e-05)
v1: Removing PWL point (5.966,-0.00018)
v1: Removing PWL point (5.981,8e-05)
v1: Removing PWL point (6.013,-0.0003)
v1: Removing PWL point (6.032,-1e-05)
v1: Removing PWL point (6.041,0.0001)
v1: Removing PWL point (6.065,0.00028)
v1: Removing PWL point (6.088,0.0001)
v1: Removing PWL point (6.108,-3e-05)
v1: Removing PWL point (6.117,4e-05)
v1: Removing PWL point (6.145,-8e-05)
v1: Removing PWL point (6.169,-0.0001)
v1: Removing PWL point (6.185,9e-05)
v1: Removing PWL point (6.208,-1e-05)
v1: Removing PWL point (6.215,0.00018)
v1: Removing PWL point (6.228,-0.00022)
v1: Removing PWL point (6.234,-9e-05)
v1: Removing PWL point (6.26,-0.00044)
v1: Removing PWL point (6.265,0)
v1: Removing PWL point (6.282,-0.00017)
v1: Removing PWL point (6.298,0.0001)
v1: Removing PWL point (6.31,-0.00019)
v1: Removing PWL point (6.318,0.00015)
v1: Removing PWL point (6.335,0.00024)
v1: Removing PWL point (6.357,3e-05)
v1: Removing PWL point (6.363,-0.00013)
v1: Removing PWL point (6.39,4e-05)
v1: Removing PWL point (6.41,-0.00021)
v1: Removing PWL point (6.423,-0.00016)
v1: Removing PWL point (6.447,-0.00021)
v1: Removing PWL point (6.47,2e-05)
v1: Removing PWL point (6.484,8e-05)
v1: Removing PWL point (6.506,-0.0002)
v1: Removing PWL point (6.527,-1e-05)
v1: Removing PWL point (6.535,0.00013)
v1: Removing PWL point (6.544,-0.00021)
v1: Removing PWL point (6.566,0.00035)
v1: Removing PWL point (6.59,4e-05)
v1: Removing PWL point (6.603,5e-05)
v1: Removing PWL point (6.634,0.00015)
v1: Removing PWL point (6.649,3e-05)
v1: Removing PWL point (6.664,1e-05)
v1: Removing PWL point (6.671,-0.00014)
v1: Removing PWL point (6.7,-0.0001)
v1: Removing PWL point (6.707,-8e-05)
v1: Removing PWL point (6.725,-0.00015)
v1: Removing PWL point (6.74,0)
v1: Removing PWL point (6.763,3e-05)
v1: Removing PWL point (6.769,4e-05)
v1: Removing PWL point (6.774,0.00022)
v1: Removing PWL point (6.792,-1e-05)
v1: Removing PWL point (6.814,2e-05)
v1: Removing PWL point (6.836,-7e-05)
v1: Removing PWL point (6.842,7e-05)
v1: Removing PWL point (6.85,-1e-05)
v1: Removing PWL point (6.867,-0.00029)
v1: Removing PWL point (6.89,0.00017)
v1: Removing PWL point (6.912,0.00014)
v1: Removing PWL point (6.927,-1e-05)
v1: Removing PWL point (6.95,-0.00014)
v1: Removing PWL point (6.962,-0.00015)
v1: Removing PWL point (6.971,-8e-05)
v1: Removing PWL point (6.988,-0.0001)
v1: Removing PWL point (7.012,0.00021)
v1: Removing PWL point (7.04,0.00014)
v1: Removing PWL point (7.062,0.00017)
v1: Removing PWL point (7.084,0.00019)
v1: Removing PWL point (7.091,6e-05)
v1: Removing PWL point (7.114,-0.00019)
v1: Removing PWL point (7.117,-0.0001)
v1: Removing PWL point (7.139,-9e-05)
v1: Removing PWL point (7.159,0.00014)
v1: Removing PWL point (7.164,-0.00029)
v1: Removing PWL point (7.192,9e-05)
v1: Removing PWL point (7.214,-5e-05)
v1: Removing PWL point (7.243,0.00016)
v1: Removing PWL point (7.254,-0.00027)
v1: Removing PWL point (7.264,1e-05)
v1: Removing PWL point (7.297,-0.00015)
v1: Removing PWL point (7.318,-0.00026)
v1: Removing PWL point (7.34,0.00011)
v1: Removing PWL point (7.37,0.00024)
v1: Removing PWL point (7.394,2e-05)
v1: Removing PWL point (7.414,-0.00014)
v1: Removing PWL point (7.445,0.00015)
v1: Removing PWL point (7.468,0.00012)
v1: Removing PWL point (7.48,5e-05)
v1: Removing PWL point (7.495,-0.0002)
v1: Removing PWL point (7.521,0.00012)
v1: Removing PWL point (7.535,-7e-05)
v1: Removing PWL point (7.572,-0.00013)
v1: Removing PWL point (7.593,-5e-05)
v1: Removing PWL point (7.61,-7e-05)
v1: Removing PWL point (7.614,-4e-05)
v1: Removing PWL point (7.647,6e-05)
v1: Removing PWL point (7.67,-3e-05)
v1: Removing PWL point (7.685,-0.00022)
v1: Removing PWL point (7.707,-0.0001)
v1: Removing PWL point (7.728,-4e-05)
v1: Removing PWL point (7.743,8e-05)
v1: Removing PWL point (7.76,-8e-05)
v1: Removing PWL point (7.783,-0.00036)
v1: Removing PWL point (7.811,-3e-05)
v1: Removing PWL point (7.814,7e-05)
v1: Removing PWL point (7.835,-2e-05)
v1: Removing PWL point (7.857,0.00027)
v1: Removing PWL point (7.889,0.00012)
v1: Removing PWL point (7.911,-1e-05)
v1: Removing PWL point (7.947,-2e-05)
v1: Removing PWL point (7.962,-1e-05)
v1: Removing PWL point (7.986,2e-05)
v1: Removing PWL point (8.006,-9e-05)
v1: Removing PWL point (8.012,0.00014)
v1: Removing PWL point (8.038,7e-05)
v1: Removing PWL point (8.059,-3e-05)
v1: Removing PWL point (8.064,-0.00011)
v1: Removing PWL point (8.082,-1e-05)
v1: Removing PWL point (8.102,8e-05)
v1: Removing PWL point (8.112,-0.00025)
v1: Removing PWL point (8.136,-5e-05)
v1: Removing PWL point (8.157,-0.00019)
v1: Removing PWL point (8.189,-5e-05)
v1: Removing PWL point (8.21,4e-05)
v1: Removing PWL point (8.23,-0.00015)
v1: Removing PWL point (8.238,0.00015)
v1: Removing PWL point (8.262,-2e-05)
v1: Removing PWL point (8.285,4e-05)
v1: Removing PWL point (8.306,-0.00027)
v1: Removing PWL point (8.312,0.00012)
v1: Removing PWL point (8.337,-0.00012)
v1: Removing PWL point (8.349,3e-05)
v1: Removing PWL point (8.36,0)
v1: Removing PWL point (8.383,-1e-05)
v1: Removing PWL point (8.403,7e-05)
v1: Removing PWL point (8.412,-9e-05)
v1: Removing PWL point (8.435,5e-05)
v1: Removing PWL point (8.456,-2e-05)
v1: Removing PWL point (8.462,-0.00014)
v1: Removing PWL point (8.489,0.00021)
v1: Removing PWL point (8.51,3e-05)
v1: Removing PWL point (8.529,0.00016)
v1: Removing PWL point (8.54,-9e-05)
v1: Removing PWL point (8.562,0.00011)
v1: Removing PWL point (8.586,-0.00023)
v1: Removing PWL point (8.606,9e-05)
v1: Removing PWL point (8.613,0.00016)
v1: Removing PWL point (8.639,0)
v1: Removing PWL point (8.66,-0.0003)
v1: Removing PWL point (8.679,-3e-05)
v1: Removing PWL point (8.691,5e-05)
v1: Removing PWL point (8.712,0.00017)
v1: Removing PWL point (8.733,-0.00026)
v1: Removing PWL point (8.74,-4e-05)
v1: Removing PWL point (8.754,2e-05)
v1: Removing PWL point (8.763,-8e-05)
v1: Removing PWL point (8.789,3e-05)
v1: Removing PWL point (8.808,0.00017)
v1: Removing PWL point (8.814,-6e-05)
v1: Removing PWL point (8.841,-0.00011)
v1: Removing PWL point (8.862,3e-05)
v1: Removing PWL point (8.885,-5e-05)
v1: Removing PWL point (8.904,2e-05)
v1: Removing PWL point (8.915,-4e-05)
v1: Removing PWL point (8.938,-4e-05)
v1: Removing PWL point (8.96,7e-05)
v1: Removing PWL point (8.979,-0.00013)
v1: Removing PWL point (8.989,-4e-05)
v1: Removing PWL point (9.011,9e-05)
v1: Removing PWL point (9.014,0)
v1: Removing PWL point (9.035,7e-05)
v1: Removing PWL point (9.054,-2e-05)
v1: Removing PWL point (9.063,-1e-05)
v1: Removing PWL point (9.091,9e-05)
v1: Removing PWL point (9.108,8e-05)
v1: Removing PWL point (9.114,0)
v1: Removing PWL point (9.141,-0.00034)
v1: Removing PWL point (9.162,6e-05)
v1: Removing PWL point (9.183,-0.0002)
v1: Removing PWL point (9.192,9e-05)
v1: Removing PWL point (9.215,0.00026)
v1: Removing PWL point (9.239,0.00028)
v1: Removing PWL point (9.258,3e-05)
v1: Removing PWL point (9.275,-0.00011)
v1: Removing PWL point (9.29,-0.0002)
v1: Removing PWL point (9.31,6e-05)
v1: Removing PWL point (9.334,0.00012)
v1: Removing PWL point (9.35,-2e-05)
v1: Removing PWL point (9.366,0)
v1: Removing PWL point (9.385,7e-05)
v1: Removing PWL point (9.41,-2e-05)
v1: Removing PWL point (9.417,0.0001)
v1: Removing PWL point (9.438,-0.00011)
v1: Removing PWL point (9.461,-0.00014)
v1: Removing PWL point (9.468,3e-05)
v1: Removing PWL point (9.476,1e-05)
v1: Removing PWL point (9.491,0.00122)
v1: Removing PWL point (9.498,-0.00014)
v1: Removing PWL point (9.538,5e-05)
v1: Removing PWL point (9.554,-7e-05)
v1: Removing PWL point (9.574,0.00127)
v1: Removing PWL point (9.588,-0.00038)
v1: Removing PWL point (9.612,8e-05)
v1: Removing PWL point (9.618,0.00119)
v1: Removing PWL point (9.624,-3e-05)
v1: Removing PWL point (9.666,-5e-05)
v1: Removing PWL point (9.67,0.00127)
v1: Removing PWL point (9.694,0.00124)
v1: Removing PWL point (9.699,0.0001)
v1: Removing PWL point (9.725,2e-05)
v1: Removing PWL point (9.731,-2e-05)
v1: Removing PWL point (9.741,9e-05)
v1: Removing PWL point (9.747,2e-05)
v1: Removing PWL point (9.753,-4e-05)
v1: Removing PWL point (9.761,-9e-05)
v1: Removing PWL point (9.77,1e-05)
v1: Removing PWL point (9.776,-2e-05)
v1: Removing PWL point (9.783,3e-05)
v1: Removing PWL point (9.794,1e-05)
v1: Removing PWL point (9.798,2e-05)
v1: Removing PWL point (9.817,-1e-05)
v1: Removing PWL point (9.822,0)
v1: Removing PWL point (9.83,-2e-05)
v1: Removing PWL point (9.835,-1e-05)
v1: Removing PWL point (9.845,-6e-05)
v1: Removing PWL point (9.854,-4e-05)
v1: Removing PWL point (9.869,-6e-05)
v1: Removing PWL point (9.875,3e-05)
v1: Removing PWL point (9.891,-3e-05)
v1: Removing PWL point (9.902,-2e-05)
v1: Removing PWL point (9.917,-1e-05)
v1: Removing PWL point (9.924,-2e-05)
v1: Removing PWL point (9.965,0)
v1: Removing PWL point (9.972,0)
v1: Removing PWL point (9.986,2e-05)
v1: Removing PWL point (9.994,1e-05)
v1: Removing PWL point (10.009,-1e-05)
v1: Removing PWL point (10.014,-2e-05)
v1: Removing PWL point (10.024,-6e-05)
v1: Removing PWL point (10.045,2e-05)
v1: Removing PWL point (10.055,0)
v1: Removing PWL point (10.067,-1e-05)
v1: Removing PWL point (10.076,-2e-05)
v1: Removing PWL point (10.092,-8e-05)
v1: Removing PWL point (10.107,1e-05)
v1: Removing PWL point (10.12,-3e-05)
v1: Removing PWL point (10.127,1e-05)
v1: Removing PWL point (10.167,-2e-05)
v1: Removing PWL point (10.175,1e-05)
v1: Removing PWL point (10.19,-1e-05)
v1: Removing PWL point (10.195,-1e-05)
v1: Removing PWL point (10.202,3e-05)
v1: Removing PWL point (10.217,-3e-05)
v1: Removing PWL point (10.226,-1e-05)
v1: Removing PWL point (10.241,-2e-05)
v1: Removing PWL point (10.257,0)
v1: Removing PWL point (10.27,-1e-05)
v1: Removing PWL point (10.279,1e-05)
v1: Removing PWL point (10.295,1e-05)
v1: Removing PWL point (10.31,-3e-05)
v1: Removing PWL point (10.325,-2e-05)
v1: Removing PWL point (10.346,0)
v1: Removing PWL point (10.362,-4e-05)
v1: Removing PWL point (10.377,-5e-05)
v1: Removing PWL point (10.383,0)
v1: Removing PWL point (10.399,-1e-05)
v1: Removing PWL point (10.407,1e-05)
v1: Removing PWL point (10.413,-4e-05)
v1: Removing PWL point (10.422,-4e-05)
v1: Removing PWL point (10.43,2e-05)
v1: Removing PWL point (10.452,2e-05)
v1: Removing PWL point (10.458,-6e-05)
v1: Removing PWL point (10.467,1e-05)
v1: Removing PWL point (10.472,-1e-05)
v1: Removing PWL point (10.48,0)
v1: Removing PWL point (10.496,-6e-05)
v1: Removing PWL point (10.52,1e-05)
v1: Removing PWL point (10.525,-2e-05)
v1: Removing PWL point (10.532,-1e-05)
v1: Removing PWL point (10.548,0)
v1: Removing PWL point (10.571,-8e-05)
v1: Removing PWL point (10.586,0)
v1: Removing PWL point (10.6,2e-05)
v1: Removing PWL point (10.625,1e-05)
v1: Removing PWL point (10.648,-2e-05)
v1: Removing PWL point (10.663,-3e-05)
v1: Removing PWL point (10.683,-1e-05)
v1: Removing PWL point (10.697,1e-05)
v1: Removing PWL point (10.724,-1e-05)
v1: Removing PWL point (10.727,2e-05)
v1: Removing PWL point (10.734,-4e-05)
v1: Removing PWL point (10.751,-3e-05)
v1: Removing PWL point (10.775,-3e-05)
v1: Removing PWL point (10.799,-3e-05)
v1: Removing PWL point (10.827,2e-05)
v1: Removing PWL point (10.85,1e-05)
v1: Removing PWL point (10.877,-1e-05)
v1: Removing PWL point (10.886,1e-05)
v1: Removing PWL point (10.903,-1e-05)
v1: Removing PWL point (10.925,-4e-05)
v1: Removing PWL point (10.938,3e-05)
v1: Removing PWL point (10.953,-3e-05)
v1: Removing PWL point (10.961,0)
v1: Removing PWL point (10.976,3e-05)
v1: Removing PWL point (11,-1e-05)
v1: Removing PWL point (11.006,0)
v1: Removing PWL point (11.022,-2e-05)
v1: Removing PWL point (11.034,-1e-05)
v1: Removing PWL point (11.051,0)
v1: Removing PWL point (11.057,-4e-05)
v1: Removing PWL point (11.073,7e-05)
v1: Removing PWL point (11.082,-2e-05)
v1: Removing PWL point (11.094,-1e-05)
v1: Removing PWL point (11.103,1e-05)
v1: Removing PWL point (11.127,-3e-05)
v1: Removing PWL point (11.142,-5e-05)
v1: Removing PWL point (11.188,-7e-05)
v1: Removing PWL point (11.203,3e-05)
v1: Removing PWL point (11.215,2e-05)
v1: Removing PWL point (11.23,-4e-05)
v1: Removing PWL point (11.255,-2e-05)
v1: Removing PWL point (11.279,1e-05)
v1: Removing PWL point (11.283,-3e-05)
v1: Removing PWL point (11.308,-1e-05)
v1: Removing PWL point (11.353,-1e-05)
v1: Removing PWL point (11.357,-4e-05)
v1: Removing PWL point (11.366,0)
v1: Removing PWL point (11.383,-2e-05)
v1: Removing PWL point (11.405,5e-05)
v1: Removing PWL point (11.417,-2e-05)
v1: Removing PWL point (11.432,-1e-05)
v1: Removing PWL point (11.459,0)
v1: Removing PWL point (11.48,2e-05)
v1: Removing PWL point (11.511,0)
v1: Removing PWL point (11.533,-3e-05)
v1: Removing PWL point (11.555,0)
v1: Removing PWL point (11.56,2e-05)
v1: Removing PWL point (11.567,-3e-05)
v1: Removing PWL point (11.585,0)
v1: Removing PWL point (11.607,-4e-05)
v1: Removing PWL point (11.63,0)
v1: Removing PWL point (11.645,-1e-05)
v1: Removing PWL point (11.657,2e-05)
v1: Removing PWL point (11.682,-2e-05)
v1: Removing PWL point (11.695,0)
v1: Removing PWL point (11.703,-2e-05)
v1: Removing PWL point (11.711,1e-05)
v1: Removing PWL point (11.717,-5e-05)
v1: Removing PWL point (11.732,0)
v1: Removing PWL point (11.74,-1e-05)
v1: Removing PWL point (11.754,-3e-05)
v1: Removing PWL point (11.765,3e-05)
v1: Removing PWL point (11.778,-2e-05)
v1: Removing PWL point (11.784,0)
v1: Removing PWL point (11.81,2e-05)
v1: Removing PWL point (11.831,5e-05)
v1: Removing PWL point (11.839,-3e-05)
v1: Removing PWL point (11.844,-5e-05)
v1: Removing PWL point (11.86,2e-05)
v1: Removing PWL point (11.867,-1e-05)
v1: Removing PWL point (11.885,-4e-05)
v1: Removing PWL point (11.907,2e-05)
v1: Removing PWL point (11.934,-1e-05)
v1: Removing PWL point (11.943,-2e-05)
v1: Removing PWL point (11.957,-4e-05)
v1: Removing PWL point (11.966,0)
v1: Removing PWL point (11.98,4e-05)
v1: Removing PWL point (11.989,-3e-05)
v1: Removing PWL point (12.012,2e-05)
v1: Removing PWL point (12.018,-4e-05)
v1: Removing PWL point (12.04,4e-05)
v1: Removing PWL point (12.047,-7e-05)
v1: Removing PWL point (12.065,6e-05)
v1: Removing PWL point (12.088,4e-05)
v1: Removing PWL point (12.11,0.00013)
v1: Removing PWL point (12.125,0.00011)
v1: Removing PWL point (12.138,1e-05)
v1: Removing PWL point (12.146,0.00068)
v1: Removing PWL point (12.16,-0.00056)
v1: Removing PWL point (12.167,0.0003)
v1: Removing PWL point (12.185,-0.00099)
v1: Removing PWL point (12.197,0.00063)
v1: Removing PWL point (12.213,-0.00102)
v1: Removing PWL point (12.22,-0.00021)
v1: Removing PWL point (12.234,0.00026)
v1: Removing PWL point (12.245,0.00022)
v1: Removing PWL point (12.257,0.00061)
v1: Removing PWL point (12.266,0.00081)
v1: Removing PWL point (12.29,-4e-05)
v1: Removing PWL point (12.312,-0.00015)
v1: Removing PWL point (12.317,0.00061)
v1: Removing PWL point (12.326,7e-05)
v1: Removing PWL point (12.34,0.00039)
v1: Removing PWL point (12.347,0.00014)
v1: Removing PWL point (12.365,-0.00032)
v1: Removing PWL point (12.377,0.00038)
v1: Removing PWL point (12.386,1e-05)
v1: Removing PWL point (12.4,-0.00034)
v1: Removing PWL point (12.414,-0.00022)
v1: Removing PWL point (12.422,0.00048)
v1: Removing PWL point (12.438,1e-05)
v1: Removing PWL point (12.461,6e-05)
v1: Removing PWL point (12.464,-8e-05)
v1: Removing PWL point (12.492,3e-05)
v1: Removing PWL point (12.515,0.0002)
v1: Removing PWL point (12.538,-0.00011)
v1: Removing PWL point (12.567,-0.00027)
v1: Removing PWL point (12.592,0.00012)
v1: Removing PWL point (12.598,0.00032)
v1: Removing PWL point (12.602,-2e-05)
v1: Removing PWL point (12.609,-0.00015)
v1: Removing PWL point (12.644,0.00015)
v1: Removing PWL point (12.665,8e-05)
v1: Removing PWL point (12.684,0.00014)
v1: Removing PWL point (12.693,0.00022)
v1: Removing PWL point (12.719,-0.00027)
v1: Removing PWL point (12.743,-0.00019)
v1: Removing PWL point (12.772,-8e-05)
v1: Removing PWL point (12.794,0.00017)
v1: Removing PWL point (12.816,8e-05)
v1: Removing PWL point (12.846,-0.00019)
v1: Removing PWL point (12.867,0.00011)
v1: Removing PWL point (12.87,-1e-05)
v1: Removing PWL point (12.898,0.00028)
v1: Removing PWL point (12.921,-5e-05)
v1: Removing PWL point (12.944,-3e-05)
v1: Removing PWL point (12.955,-0.00014)
v1: Removing PWL point (12.974,-6e-05)
v1: Removing PWL point (12.996,0.00014)
v1: Removing PWL point (13.019,9e-05)
v1: Removing PWL point (13.03,0.00015)
v1: Removing PWL point (13.047,-0.00014)
v1: Removing PWL point (13.071,3e-05)
v1: Removing PWL point (13.089,-0.00011)
v1: Removing PWL point (13.106,0.00021)
v1: Removing PWL point (13.113,-0.00057)
v1: Removing PWL point (13.146,0.00012)
v1: Removing PWL point (13.161,-1e-05)
v1: Removing PWL point (13.183,-0.00039)
v1: Removing PWL point (13.221,0.00019)
v1: Removing PWL point (13.236,0.00018)
v1: Removing PWL point (13.273,6e-05)
v1: Removing PWL point (13.297,0.0001)
v1: Removing PWL point (13.31,3e-05)
v1: Removing PWL point (13.323,-0.00018)
v1: Removing PWL point (13.348,9e-05)
v1: Removing PWL point (13.354,8e-05)
v1: Removing PWL point (13.375,-2e-05)
v1: Removing PWL point (13.401,0.00032)
v1: Removing PWL point (13.423,-0.00018)
v1: Removing PWL point (13.431,-1e-05)
v1: Removing PWL point (13.451,-0.0003)
v1: Removing PWL point (13.473,3e-05)
v1: Removing PWL point (13.497,-0.00041)
v1: Removing PWL point (13.5,3e-05)
v1: Removing PWL point (13.506,-0.00022)
v1: Removing PWL point (13.526,-6e-05)
v1: Removing PWL point (13.549,-0.00021)
v1: Removing PWL point (13.572,-0.00017)
v1: Removing PWL point (13.583,0.00017)
v1: Removing PWL point (13.601,0.0003)
v1: Removing PWL point (13.624,0)
v1: Removing PWL point (13.632,-8e-05)
v1: Removing PWL point (13.656,-4e-05)
v1: Removing PWL point (13.679,2e-05)
v1: Removing PWL point (13.698,-0.00013)
v1: Removing PWL point (13.707,7e-05)
v1: Removing PWL point (13.731,-8e-05)
v1: Removing PWL point (13.754,-0.00035)
v1: Removing PWL point (13.774,-5e-05)
v1: Removing PWL point (13.78,0.00013)
v1: Removing PWL point (13.795,-0.00033)
v1: Removing PWL point (13.806,0.0001)
v1: Removing PWL point (13.829,-6e-05)
v1: Removing PWL point (13.851,0.00018)
v1: Removing PWL point (13.871,0.00021)
v1: Removing PWL point (13.879,-6e-05)
v1: Removing PWL point (13.904,-1e-05)
v1: Removing PWL point (13.927,-8e-05)
v1: Removing PWL point (13.956,0.0002)
v1: Removing PWL point (13.978,7e-05)
v1: Removing PWL point (14.003,-0.00011)
v1: Removing PWL point (14.031,0.00012)
v1: Removing PWL point (14.053,8e-05)
v1: Removing PWL point (14.083,-6e-05)
v1: Removing PWL point (14.106,-0.00022)
v1: Removing PWL point (14.127,-2e-05)
v1: Removing PWL point (14.13,-0.00031)
v1: Removing PWL point (14.14,-0.00012)
v1: Removing PWL point (14.157,-4e-05)
v1: Removing PWL point (14.181,0.00022)
v1: Removing PWL point (14.196,-0.00017)
v1: Removing PWL point (14.216,5e-05)
v1: Removing PWL point (14.232,-0.00029)
v1: Removing PWL point (14.256,-1e-05)
v1: Removing PWL point (14.271,-0.0002)
v1: Removing PWL point (14.291,6e-05)
v1: Removing PWL point (14.305,5e-05)
v1: Removing PWL point (14.331,0.00039)
v1: Removing PWL point (14.346,0.00015)
v1: Removing PWL point (14.368,4e-05)
v1: Removing PWL point (14.389,-4e-05)
v1: Removing PWL point (14.404,0.0001)
v1: Removing PWL point (14.422,0.00029)
v1: Removing PWL point (14.458,7e-05)
v1: Removing PWL point (14.463,0)
v1: Removing PWL point (14.47,-0.00039)
v1: Removing PWL point (14.485,0.00021)
v1: Removing PWL point (14.494,-0.00011)
v1: Removing PWL point (14.518,7e-05)
v1: Removing PWL point (14.542,-8e-05)
v1: Removing PWL point (14.561,-0.00027)
v1: Removing PWL point (14.569,-3e-05)
v1: Removing PWL point (14.594,6e-05)
v1: Removing PWL point (14.616,-5e-05)
v1: Removing PWL point (14.638,-6e-05)
v1: Removing PWL point (14.643,-0.0002)
v1: Removing PWL point (14.668,-0.00011)
v1: Removing PWL point (14.691,-1e-05)
v1: Removing PWL point (14.713,0.00011)
v1: Removing PWL point (14.734,-5e-05)
v1: Removing PWL point (14.742,0)
v1: Removing PWL point (14.766,0.00013)
v1: Removing PWL point (14.789,0.00024)
v1: Removing PWL point (14.808,-0.00029)
v1: Removing PWL point (14.817,6e-05)
v1: Removing PWL point (14.842,-0.00027)
v1: Removing PWL point (14.864,1e-05)
v1: Removing PWL point (14.884,-2e-05)
v1: Removing PWL point (14.89,-0.00014)
v1: Removing PWL point (14.905,0.0001)
v1: Removing PWL point (14.914,-5e-05)
v1: Removing PWL point (14.961,-1e-05)
v1: Removing PWL point (14.991,-1e-05)
v1: Removing PWL point (15.013,4e-05)
v1: Removing PWL point (15.036,0.00031)
v1: Removing PWL point (15.067,6e-05)
v1: Removing PWL point (15.089,-0.00027)
v1: Removing PWL point (15.118,-4e-05)
v1: Removing PWL point (15.14,9e-05)
v1: Removing PWL point (15.162,-4e-05)
v1: Removing PWL point (15.165,0.00016)
v1: Removing PWL point (15.186,5e-05)
v1: Removing PWL point (15.192,-0.0001)
v1: Removing PWL point (15.2,-7e-05)
v1: Removing PWL point (15.217,-1e-05)
v1: Removing PWL point (15.24,-0.00014)
v1: Removing PWL point (15.268,0)
v1: Removing PWL point (15.291,2e-05)
v1: Removing PWL point (15.321,-0.00033)
v1: Removing PWL point (15.343,7e-05)
v1: Removing PWL point (15.368,6e-05)
v1: Removing PWL point (15.396,0.00018)
v1: Removing PWL point (15.419,0.00028)
v1: Removing PWL point (15.441,-0.00022)
v1: Removing PWL point (15.454,0.00036)
v1: Removing PWL point (15.47,7e-05)
v1: Removing PWL point (15.494,-0.00012)
v1: Removing PWL point (15.516,-9e-05)
v1: Removing PWL point (15.528,1e-05)
v1: Removing PWL point (15.543,-0.00016)
v1: Removing PWL point (15.57,1e-05)
v1: Removing PWL point (15.598,0.00028)
v1: Removing PWL point (15.603,-4e-05)
v1: Removing PWL point (15.619,-3e-05)
v1: Removing PWL point (15.644,-9e-05)
v1: Removing PWL point (15.659,-6e-05)
v1: Removing PWL point (15.672,0.00023)
v1: Removing PWL point (15.696,-4e-05)
v1: Removing PWL point (15.718,-0.00012)
v1: Removing PWL point (15.733,7e-05)
v1: Removing PWL point (15.749,-0.00021)
v1: Removing PWL point (15.77,-0.0005)
v1: Removing PWL point (15.795,-0.00019)
v1: Removing PWL point (15.798,1e-05)
v1: Removing PWL point (15.806,-0.00013)
v1: Removing PWL point (15.82,0.00017)
v1: Removing PWL point (15.83,0.00026)
v1: Removing PWL point (15.845,0.00011)
v1: Removing PWL point (15.861,2e-05)
v1: Removing PWL point (15.873,-0.00015)
v1: Removing PWL point (15.882,0.00012)
v1: Removing PWL point (15.899,-1e-05)
v1: Removing PWL point (15.919,-2e-05)
v1: Removing PWL point (15.926,-4e-05)
v1: Removing PWL point (15.934,-2e-05)
v1: Removing PWL point (15.975,2e-05)
v1: Removing PWL point (15.979,0)
v1: Removing PWL point (15.999,0)
v1: Removing PWL point (16.005,4e-05)
v1: Removing PWL point (16.012,2e-05)
v1: Removing PWL point (16.033,-7e-05)
v1: Removing PWL point (16.05,-1e-05)
v1: Removing PWL point (16.073,-2e-05)
v1: Removing PWL point (16.08,3e-05)
v1: Removing PWL point (16.089,0)
v1: Removing PWL point (16.102,-1e-05)
v1: Removing PWL point (16.109,-1e-05)
v1: Removing PWL point (16.124,3e-05)
v1: Removing PWL point (16.139,-4e-05)
v1: Removing PWL point (16.155,-1e-05)
v1: Removing PWL point (16.161,0)
v1: Removing PWL point (16.178,-1e-05)
v1: Removing PWL point (16.181,1e-05)
v1: Removing PWL point (16.2,-1e-05)
v1: Removing PWL point (16.206,-1e-05)
v1: Removing PWL point (16.213,1e-05)
v1: Removing PWL point (16.219,-3e-05)
v1: Removing PWL point (16.228,-2e-05)
v1: Removing PWL point (16.233,0)
v1: Removing PWL point (16.25,-3e-05)
v1: Removing PWL point (16.271,1e-05)
v1: Removing PWL point (16.285,-4e-05)
v1: Removing PWL point (16.294,0)
v1: Removing PWL point (16.309,0)
v1: Removing PWL point (16.324,1e-05)
v1: Removing PWL point (16.33,-2e-05)
v1: Removing PWL point (16.346,-6e-05)
v1: Removing PWL point (16.353,0)
v1: Removing PWL point (16.377,-5e-05)
v1: Removing PWL point (16.383,0)
v1: Removing PWL point (16.398,-1e-05)
v1: Removing PWL point (16.405,-6e-05)
v1: Removing PWL point (16.413,1e-05)
v1: Removing PWL point (16.429,-2e-05)
v1: Removing PWL point (16.452,-1e-05)
v1: Removing PWL point (16.475,-5e-05)
v1: Removing PWL point (16.49,-4e-05)
v1: Removing PWL point (16.504,-5e-05)
v1: Removing PWL point (16.51,6e-05)
v1: Removing PWL point (16.525,-1e-05)
v1: Removing PWL point (16.533,-5e-05)
v1: Removing PWL point (16.551,3e-05)
v1: Removing PWL point (16.563,-2e-05)
v1: Removing PWL point (16.57,0)
v1: Removing PWL point (16.585,2e-05)
v1: Removing PWL point (16.594,-7e-05)
v1: Removing PWL point (16.608,-3e-05)
v1: Removing PWL point (16.624,1e-05)
v1: Removing PWL point (16.63,0)
v1: Removing PWL point (16.655,-6e-05)
v1: Removing PWL point (16.677,3e-05)
v1: Removing PWL point (16.682,-5e-05)
v1: Removing PWL point (16.69,1e-05)
v1: Removing PWL point (16.707,-1e-05)
v1: Removing PWL point (16.713,2e-05)
v1: Removing PWL point (16.73,-1e-05)
v1: Removing PWL point (16.752,-7e-05)
v1: Removing PWL point (16.765,-2e-05)
v1: Removing PWL point (16.789,1e-05)
v1: Removing PWL point (16.804,-1e-05)
v1: Removing PWL point (16.81,0)
v1: Removing PWL point (16.833,-1e-05)
v1: Removing PWL point (16.849,1e-05)
v1: Removing PWL point (16.863,1e-05)
v1: Removing PWL point (16.878,-4e-05)
v1: Removing PWL point (16.885,1e-05)
v1: Removing PWL point (16.901,2e-05)
v1: Removing PWL point (16.909,-3e-05)
v1: Removing PWL point (16.931,-2e-05)
v1: Removing PWL point (16.955,6e-05)
v1: Removing PWL point (16.967,-3e-05)
v1: Removing PWL point (16.976,1e-05)
v1: Removing PWL point (16.983,2e-05)
v1: Removing PWL point (16.99,-4e-05)
v1: Removing PWL point (17.007,2e-05)
v1: Removing PWL point (17.013,-1e-05)
v1: Removing PWL point (17.028,1e-05)
v1: Removing PWL point (17.043,-1e-05)
v1: Removing PWL point (17.065,2e-05)
v1: Removing PWL point (17.073,0)
v1: Removing PWL point (17.089,-4e-05)
v1: Removing PWL point (17.105,-4e-05)
v1: Removing PWL point (17.11,0)
v1: Removing PWL point (17.125,-1e-05)
v1: Removing PWL point (17.133,-2e-05)
v1: Removing PWL point (17.157,-1e-05)
v1: Removing PWL point (17.179,-2e-05)
v1: Removing PWL point (17.185,-1e-05)
v1: Removing PWL point (17.235,1e-05)
v1: Removing PWL point (17.247,-2e-05)
v1: Removing PWL point (17.261,3e-05)
v1: Removing PWL point (17.285,-5e-05)
v1: Removing PWL point (17.307,-1e-05)
v1: Removing PWL point (17.314,-2e-05)
v1: Removing PWL point (17.339,6e-05)
v1: Removing PWL point (17.36,-1e-05)
v1: Removing PWL point (17.365,1e-05)
v1: Removing PWL point (17.381,-2e-05)
v1: Removing PWL point (17.397,-4e-05)
v1: Removing PWL point (17.411,2e-05)
v1: Removing PWL point (17.439,-2e-05)
v1: Removing PWL point (17.459,3e-05)
v1: Removing PWL point (17.471,-1e-05)
v1: Removing PWL point (17.489,-6e-05)
v1: Removing PWL point (17.51,-1e-05)
v1: Removing PWL point (17.524,-2e-05)
v1: Removing PWL point (17.54,-1e-05)
v1: Removing PWL point (17.546,-3e-05)
v1: Removing PWL point (17.561,-0.0001)
v1: Removing PWL point (17.585,0)
v1: Removing PWL point (17.6,-0.00012)
v1: Removing PWL point (17.615,0)
v1: Removing PWL point (17.64,-4e-05)
v1: Removing PWL point (17.661,2e-05)
v1: Removing PWL point (17.675,1e-05)
v1: Removing PWL point (17.689,-2e-05)
v1: Removing PWL point (17.713,-2e-05)
v1: Removing PWL point (17.719,0)
v1: Removing PWL point (17.748,-4e-05)
v1: Removing PWL point (17.762,0)
v1: Removing PWL point (17.77,-1e-05)
v1: Removing PWL point (17.789,1e-05)
v1: Removing PWL point (17.794,-1e-05)
v1: Removing PWL point (17.808,-3e-05)
v1: Removing PWL point (17.817,-1e-05)
v1: Removing PWL point (17.84,5e-05)
v1: Removing PWL point (17.845,-6e-05)
v1: Removing PWL point (17.862,0.00014)
v1: Removing PWL point (17.867,-4e-05)
v1: Removing PWL point (17.877,-0.00012)
v1: Removing PWL point (17.89,-5e-05)
v1: Removing PWL point (17.899,-0.0002)
v1: Removing PWL point (17.915,0)
v1: Removing PWL point (17.94,0.00012)
v1: Removing PWL point (17.95,-1e-05)
v1: Removing PWL point (17.968,0.00018)
v1: Removing PWL point (17.975,0)
v1: Removing PWL point (17.99,1e-05)
v1: Removing PWL point (17.997,-2e-05)
v1: Removing PWL point (18.011,0.00016)
v1: Removing PWL point (18.019,-0.00023)
v1: Removing PWL point (18.043,6e-05)
v1: Removing PWL point (18.047,-7e-05)
v1: Removing PWL point (18.064,8e-05)
v1: Removing PWL point (18.071,-0.00019)
v1: Removing PWL point (18.077,-2e-05)
v1: Removing PWL point (18.096,-0.00012)
v1: Removing PWL point (18.118,-0.00032)
v1: Removing PWL point (18.14,-3e-05)
v1: Removing PWL point (18.145,-4e-05)
v1: Removing PWL point (18.176,-3e-05)
v1: Removing PWL point (18.191,0.0004)
v1: Removing PWL point (18.2,0.0002)
v1: Removing PWL point (18.216,-0.00011)
v1: Removing PWL point (18.229,-0.00011)
v1: Removing PWL point (18.244,0.00023)
v1: Removing PWL point (18.25,1e-05)
v1: Removing PWL point (18.268,0.00011)
v1: Removing PWL point (18.284,-0.00017)
v1: Removing PWL point (18.295,-7e-05)
v1: Removing PWL point (18.304,3e-05)
v1: Removing PWL point (18.321,-4e-05)
v1: Removing PWL point (18.344,8e-05)
v1: Removing PWL point (18.356,-0.00019)
v1: Removing PWL point (18.37,5e-05)
v1: Removing PWL point (18.38,-0.0002)
v1: Removing PWL point (18.403,4e-05)
v1: Removing PWL point (18.415,0.00016)
v1: Removing PWL point (18.424,9e-05)
v1: Removing PWL point (18.44,1e-05)
v1: Removing PWL point (18.447,-0.00018)
v1: Removing PWL point (18.47,-3e-05)
v1: Removing PWL point (18.486,0.0002)
v1: Removing PWL point (18.501,-4e-05)
v1: Removing PWL point (18.523,-5e-05)
v1: Removing PWL point (18.559,-8e-05)
v1: Removing PWL point (18.578,8e-05)
v1: Removing PWL point (18.581,-1e-05)
v1: Removing PWL point (18.591,5e-05)
v1: Removing PWL point (18.596,7e-05)
v1: Removing PWL point (18.611,-0.00029)
v1: Removing PWL point (18.628,-5e-05)
v1: Removing PWL point (18.65,-2e-05)
v1: Removing PWL point (18.665,0)
v1: Removing PWL point (18.672,-1e-05)
v1: Removing PWL point (18.678,-0.00013)
v1: Removing PWL point (18.685,-6e-05)
v1: Removing PWL point (18.703,-1e-05)
v1: Removing PWL point (18.726,-3e-05)
v1: Removing PWL point (18.739,-4e-05)
v1: Removing PWL point (18.763,0.00024)
v1: Removing PWL point (18.785,-4e-05)
v1: Removing PWL point (18.799,-0.00013)
v1: Removing PWL point (18.805,2e-05)
v1: Removing PWL point (18.823,-1e-05)
v1: Removing PWL point (18.853,-6e-05)
v1: Removing PWL point (18.86,3e-05)
v1: Removing PWL point (18.883,2e-05)
v1: Removing PWL point (18.906,0)
v1: Removing PWL point (18.919,4e-05)
v1: Removing PWL point (18.925,-4e-05)
v1: Removing PWL point (18.95,-0.00011)
v1: Removing PWL point (18.966,-0.0001)
v1: Removing PWL point (18.986,0)
v1: Removing PWL point (19.003,2e-05)
v1: Removing PWL point (19.026,3e-05)
v1: Removing PWL point (19.038,6e-05)
v1: Removing PWL point (19.046,3e-05)
v1: Removing PWL point (19.063,-1e-05)
v1: Removing PWL point (19.085,-0.00011)
v1: Removing PWL point (19.098,8e-05)
v1: Removing PWL point (19.107,4e-05)
v1: Removing PWL point (19.121,2e-05)
v1: Removing PWL point (19.128,0.0001)
v1: Removing PWL point (19.144,3e-05)
v1: Removing PWL point (19.15,0)
v1: Removing PWL point (19.158,-0.00017)
v1: Removing PWL point (19.166,-7e-05)
v1: Removing PWL point (19.183,-1e-05)
v1: Removing PWL point (19.206,-8e-05)
v1: Removing PWL point (19.228,0)
v1: Removing PWL point (19.25,-3e-05)
v1: Removing PWL point (19.266,-7e-05)
v1: Removing PWL point (19.278,-2e-05)
v1: Removing PWL point (19.286,-1e-05)
v1: Removing PWL point (19.303,8e-05)
v1: Removing PWL point (19.325,8e-05)
v1: Removing PWL point (19.339,4e-05)
v1: Removing PWL point (19.355,3e-05)
v1: Removing PWL point (19.385,-1e-05)
v1: Removing PWL point (19.389,6e-05)
v1: Removing PWL point (19.408,-7e-05)
v1: Removing PWL point (19.415,1e-05)
v1: Removing PWL point (19.439,-4e-05)
v1: Removing PWL point (19.459,-2e-05)
v1: Removing PWL point (19.47,-1e-05)
v1: Removing PWL point (19.491,-6e-05)
v1: Removing PWL point (19.506,2e-05)
v1: Removing PWL point (19.528,-2e-05)
v1: Removing PWL point (19.541,-1e-05)
v1: Removing PWL point (19.555,2e-05)
v1: Removing PWL point (19.566,9e-05)
v1: Removing PWL point (19.59,-6e-05)
v1: Removing PWL point (19.602,6e-05)
v1: Removing PWL point (19.609,-0.00014)
v1: Removing PWL point (19.632,-1e-05)
v1: Removing PWL point (19.639,6e-05)
v1: Removing PWL point (19.655,4e-05)
v1: Removing PWL point (19.662,0)
v1: Removing PWL point (19.675,-3e-05)
v1: Removing PWL point (19.685,-0.0001)
v1: Removing PWL point (19.708,4e-05)
v1: Removing PWL point (19.721,3e-05)
v1: Removing PWL point (19.727,0.00011)
v1: Removing PWL point (19.746,-5e-05)
v1: Removing PWL point (19.768,-5e-05)
v1: Removing PWL point (19.781,3e-05)
v1: Removing PWL point (19.788,-3e-05)
v1: Removing PWL point (19.813,-8e-05)
v1: Removing PWL point (19.827,-0.00012)
v1: Removing PWL point (19.834,1e-05)
v1: Removing PWL point (19.84,-3e-05)
v1: Removing PWL point (19.856,1e-05)
v1: Removing PWL point (19.865,-3e-05)
v1: Removing PWL point (19.889,-0.00011)
v1: Removing PWL point (19.9,3e-05)
v1: Removing PWL point (19.909,-5e-05)
v1: Removing PWL point (19.926,0.00015)
v1: Removing PWL point (19.948,-5e-05)
v1: Removing PWL point (19.96,-2e-05)
v1: Removing PWL point (19.985,3e-05)
v1: Removing PWL point (20.009,-7e-05)
v1: Removing PWL point (20.029,-8e-05)
v1: Removing PWL point (20.044,2e-05)
v1: Removing PWL point (20.066,1e-05)
v1: Removing PWL point (20.09,4e-05)
v1: Removing PWL point (20.104,-2e-05)
v1: Removing PWL point (20.126,-0.00011)
v1: Removing PWL point (20.133,-5e-05)
v1: Removing PWL point (20.15,4e-05)
v1: Removing PWL point (20.164,-3e-05)
v1: Removing PWL point (20.186,-0.00022)
v1: Removing PWL point (20.21,0)
v1: Removing PWL point (20.224,0.0001)
v1: Removing PWL point (20.246,-3e-05)
v1: Removing PWL point (20.27,-3e-05)
v1: Removing PWL point (20.284,0)
v1: Removing PWL point (20.315,4e-05)
v1: Removing PWL point (20.329,6e-05)
v1: Removing PWL point (20.378,2e-05)
v1: Removing PWL point (20.393,-0.00012)
v1: Removing PWL point (20.398,-5e-05)
v1: Removing PWL point (20.411,-7e-05)
v1: Removing PWL point (20.419,-3e-05)
v1: Removing PWL point (20.441,2e-05)
v1: Removing PWL point (20.464,-7e-05)
v1: Removing PWL point (20.479,-7e-05)
v1: Removing PWL point (20.494,-5e-05)
v1: Removing PWL point (20.5,-2e-05)
v1: Removing PWL point (20.515,-1e-05)
v1: Removing PWL point (20.524,0.00012)
v1: Removing PWL point (20.54,2e-05)
v1: Removing PWL point (20.554,1e-05)
v1: Removing PWL point (20.56,-4e-05)
v1: Removing PWL point (20.575,1e-05)
v1: Removing PWL point (20.591,-1e-05)
v1: Removing PWL point (20.599,-3e-05)
v1: Removing PWL point (20.614,-2e-05)
v1: Removing PWL point (20.62,-3e-05)
v1: Removing PWL point (20.635,5e-05)
v1: Removing PWL point (20.643,-0.0001)
v1: Removing PWL point (20.666,4e-05)
v1: Removing PWL point (20.674,2e-05)
v1: Removing PWL point (20.69,-2e-05)
v1: Removing PWL point (20.695,5e-05)
v1: Removing PWL point (20.702,-7e-05)
v1: Removing PWL point (20.719,-4e-05)
v1: Removing PWL point (20.749,-5e-05)
v1: Removing PWL point (20.764,0.00015)
v1: Removing PWL point (20.777,-0.00011)
v1: Removing PWL point (20.785,-2e-05)
v1: Removing PWL point (20.794,1e-05)
v1: Removing PWL point (20.8,-9e-05)
v1: Removing PWL point (20.824,2e-05)
v1: Removing PWL point (20.856,-2e-05)
v1: Removing PWL point (20.869,-3e-05)
v1: Removing PWL point (20.901,1e-05)
v1: Removing PWL point (20.906,3e-05)
v1: Removing PWL point (20.913,9e-05)
v1: Removing PWL point (20.93,1e-05)
v1: Removing PWL point (20.944,3e-05)
v1: Removing PWL point (20.967,-5e-05)
v1: Removing PWL point (20.997,2e-05)
v1: Removing PWL point (21.004,-6e-05)
v1: Removing PWL point (21.028,-2e-05)
v1: Removing PWL point (21.066,-4e-05)
v1: Removing PWL point (21.075,6e-05)
v1: Removing PWL point (21.094,-3e-05)
v1: Removing PWL point (21.118,-4e-05)
v1: Removing PWL point (21.131,0)
v1: Removing PWL point (21.146,2e-05)
v1: Removing PWL point (21.153,-1e-05)
v1: Removing PWL point (21.171,-4e-05)
v1: Removing PWL point (21.211,1e-05)
v1: Removing PWL point (21.221,-5e-05)
v1: Removing PWL point (21.231,1e-05)
v1: Removing PWL point (21.244,-1e-05)
v1: Removing PWL point (21.267,-2e-05)
v1: Removing PWL point (21.297,-3e-05)
v1: Removing PWL point (21.303,-2e-05)
v1: Removing PWL point (21.33,-2e-05)
v1: Removing PWL point (21.351,1e-05)
v1: Removing PWL point (21.372,0)
v1: Removing PWL point (21.394,-2e-05)
v1: Removing PWL point (21.411,1e-05)
v1: Removing PWL point (21.424,-6e-05)
v1: Removing PWL point (21.431,-2e-05)
v1: Removing PWL point (21.447,-2e-05)
v1: Removing PWL point (21.469,1e-05)
v1: Removing PWL point (21.476,3e-05)
v1: Removing PWL point (21.485,-2e-05)
v1: Removing PWL point (21.498,-4e-05)
v1: Removing PWL point (21.506,-2e-05)
v1: Removing PWL point (21.543,-1e-05)
v1: Removing PWL point (21.552,-2e-05)
v1: Removing PWL point (21.574,0)
v1: Removing PWL point (21.597,0)
v1: Removing PWL point (21.603,-4e-05)
v1: Removing PWL point (21.629,0)
v1: Removing PWL point (21.652,-3e-05)
v1: Removing PWL point (21.672,2e-05)
v1: Removing PWL point (21.686,-6e-05)
v1: Removing PWL point (21.7,-1e-05)
v1: Removing PWL point (21.71,0)
v1: Removing PWL point (21.733,0)
v1: Removing PWL point (21.746,-1e-05)
v1: Removing PWL point (21.752,-2e-05)
v1: Removing PWL point (21.778,-2e-05)
v1: Removing PWL point (21.8,-3e-05)
v1: Removing PWL point (21.806,-1e-05)
v1: Removing PWL point (21.812,-8e-05)
v1: Removing PWL point (21.831,2e-05)
v1: Removing PWL point (21.853,-2e-05)
v1: Removing PWL point (21.875,2e-05)
v1: Removing PWL point (21.898,0)
v1: Removing PWL point (21.913,2e-05)
v1: Removing PWL point (21.926,1e-05)
v1: Removing PWL point (21.932,0)
v1: Removing PWL point (21.952,-8e-05)
v1: Removing PWL point (21.98,-1e-05)
v1: Removing PWL point (21.986,0)
v1: Removing PWL point (22,1e-05)
v1: Removing PWL point (22.009,0)
v1: Removing PWL point (22.033,1e-05)
v1: Removing PWL point (22.055,-2e-05)
v1: Removing PWL point (22.078,-1e-05)
v1: Removing PWL point (22.099,-2e-05)
v1: Removing PWL point (22.108,2e-05)
v1: Removing PWL point (22.112,0)
v1: Removing PWL point (22.13,0)
v1: Removing PWL point (22.154,-3e-05)
v1: Removing PWL point (22.173,2e-05)
v1: Removing PWL point (22.181,1e-05)
v1: Removing PWL point (22.19,0)
v1: Removing PWL point (22.213,0)
v1: Removing PWL point (22.225,-8e-05)
v1: Removing PWL point (22.234,2e-05)
v1: Removing PWL point (22.258,-1e-05)
v1: Removing PWL point (22.28,-4e-05)
v1: Removing PWL point (22.302,1e-05)
v1: Removing PWL point (22.312,-1e-05)
v1: Removing PWL point (22.355,-5e-05)
v1: Removing PWL point (22.385,2e-05)
v1: Removing PWL point (22.393,-1e-05)
v1: Removing PWL point (22.405,0)
v1: Removing PWL point (22.414,-1e-05)
v1: Removing PWL point (22.431,-1e-05)
v1: Removing PWL point (22.46,0)
v1: Removing PWL point (22.465,-3e-05)
v1: Removing PWL point (22.481,4e-05)
v1: Removing PWL point (22.506,0)
v1: Removing PWL point (22.512,-2e-05)
v1: Removing PWL point (22.517,0)
v1: Removing PWL point (22.535,0)
v1: Removing PWL point (22.558,-1e-05)
v1: Removing PWL point (22.58,-2e-05)
v1: Removing PWL point (22.595,0)
v1: Removing PWL point (22.608,2e-05)
v1: Removing PWL point (22.634,0)
v1: Removing PWL point (22.654,-3e-05)
v1: Removing PWL point (22.67,-2e-05)
v1: Removing PWL point (22.708,-3e-05)
v1: Removing PWL point (22.715,-5e-05)
v1: Removing PWL point (22.731,0)
v1: Removing PWL point (22.76,0)
v1: Removing PWL point (22.783,1e-05)
v1: Removing PWL point (22.79,2e-05)
v1: Removing PWL point (22.795,-2e-05)
v1: Removing PWL point (22.813,4e-05)
v1: Removing PWL point (22.835,-2e-05)
v1: Removing PWL point (22.862,-1e-05)
v1: Removing PWL point (22.873,-1e-05)
v1: Removing PWL point (22.895,-4e-05)
v1: Removing PWL point (22.908,0)
v1: Removing PWL point (22.938,-2e-05)
v1: Removing PWL point (22.963,-3e-05)
v1: Removing PWL point (22.982,0)
v1: Removing PWL point (22.993,1e-05)
v1: Removing PWL point (23.014,-6e-05)
v1: Removing PWL point (23.039,-3e-05)
v1: Removing PWL point (23.068,0)
v1: Removing PWL point (23.09,-3e-05)
v1: Removing PWL point (23.096,-1e-05)
v1: Removing PWL point (23.113,2e-05)
v1: Removing PWL point (23.134,-1e-05)
v1: Removing PWL point (23.147,-3e-05)
v1: Removing PWL point (23.164,-2e-05)
v1: Removing PWL point (23.173,-3e-05)
v1: Removing PWL point (23.195,0)
v1: Removing PWL point (23.218,-2e-05)
v1: Removing PWL point (23.24,-4e-05)
v1: Removing PWL point (23.263,3e-05)
v1: Removing PWL point (23.295,-1e-05)
v1: Removing PWL point (23.299,-7e-05)
v1: Removing PWL point (23.315,-1e-05)
v1: Removing PWL point (23.339,-2e-05)
v1: Removing PWL point (23.353,-1e-05)
v1: Removing PWL point (23.375,-3e-05)
v1: Removing PWL point (23.388,1e-05)
v1: Removing PWL point (23.396,0)
v1: Removing PWL point (23.413,-1e-05)
v1: Removing PWL point (23.443,2e-05)
v1: Removing PWL point (23.447,0)
v1: Removing PWL point (23.464,1e-05)
v1: Removing PWL point (23.472,-2e-05)
v1: Removing PWL point (23.497,-1e-05)
v1: Removing PWL point (23.518,-7e-05)
v1: Removing PWL point (23.541,1e-05)
v1: Removing PWL point (23.57,-1e-05)
v1: Removing PWL point (23.578,1e-05)
v1: Removing PWL point (23.593,4e-05)
v1: Removing PWL point (23.616,-1e-05)
v1: Removing PWL point (23.645,1e-05)
v1: Removing PWL point (23.652,-0.00011)
v1: Removing PWL point (23.665,-1e-05)
v1: Removing PWL point (23.691,2e-05)
v1: Removing PWL point (23.699,-0.00016)
v1: Removing PWL point (23.721,1e-05)
v1: Removing PWL point (23.743,0.00011)
v1: Removing PWL point (23.764,-1e-05)
v1: Removing PWL point (23.772,-0.0003)
v1: Removing PWL point (23.778,8e-05)
v1: Removing PWL point (23.796,-0.00017)
v1: Removing PWL point (23.818,-0.00011)
v1: Removing PWL point (23.84,-5e-05)
v1: Removing PWL point (23.855,8e-05)
v1: Removing PWL point (23.878,-0.00015)
v1: Removing PWL point (23.891,-2e-05)
v1: Removing PWL point (23.899,0.00011)
v1: Removing PWL point (23.915,4e-05)
v1: Removing PWL point (23.939,-0.00034)
v1: Removing PWL point (23.95,-4e-05)
v1: Removing PWL point (23.966,0.00015)
v1: Removing PWL point (23.976,0.00043)
v1: Removing PWL point (23.998,0.0001)
v1: Removing PWL point (24.02,-2e-05)
v1: Removing PWL point (24.043,-0.00011)
v1: Removing PWL point (24.058,-0.00025)
v1: Removing PWL point (24.07,0.00032)
v1: Removing PWL point (24.079,9e-05)
v1: Removing PWL point (24.096,0.00011)
v1: Removing PWL point (24.118,-0.00027)
v1: Removing PWL point (24.13,0.00034)
v1: Removing PWL point (24.145,-0.00017)
v1: Removing PWL point (24.155,-8e-05)
v1: Removing PWL point (24.177,-3e-05)
v1: Removing PWL point (24.182,-0.00011)
v1: Removing PWL point (24.191,0.0001)
v1: Removing PWL point (24.199,-0.0001)
v1: Removing PWL point (24.223,0.00029)
v1: Removing PWL point (24.245,0.00038)
v1: Removing PWL point (24.25,-1e-05)
v1: Removing PWL point (24.259,-6e-05)
v1: Removing PWL point (24.275,-0.00021)
v1: Removing PWL point (24.298,-8e-05)
v1: Removing PWL point (24.319,-0.0001)
v1: Removing PWL point (24.336,0.00017)
v1: Removing PWL point (24.359,0)
v1: Removing PWL point (24.37,-0.00012)
v1: Removing PWL point (24.397,-0.00016)
v1: Removing PWL point (24.418,-0.00011)
v1: Removing PWL point (24.43,0.00023)
v1: Removing PWL point (24.446,-3e-05)
v1: Removing PWL point (24.46,0.00017)
v1: Removing PWL point (24.478,0.0001)
v1: Removing PWL point (24.5,-0.00027)
v1: Removing PWL point (24.523,7e-05)
v1: Removing PWL point (24.539,6e-05)
v1: Removing PWL point (24.579,0.0001)
v1: Removing PWL point (24.599,-7e-05)
v1: Removing PWL point (24.602,-0.00018)
v1: Removing PWL point (24.619,-0.00025)
v1: Removing PWL point (24.625,3e-05)
v1: Removing PWL point (24.635,-0.00031)
v1: Removing PWL point (24.658,-1e-05)
v1: Removing PWL point (24.68,0.00027)
v1: Removing PWL point (24.703,0.00022)
v1: Removing PWL point (24.725,-0.00016)
v1: Removing PWL point (24.74,6e-05)
v1: Removing PWL point (24.754,-0.00013)
v1: Removing PWL point (24.76,2e-05)
v1: Removing PWL point (24.778,-0.00014)
v1: Removing PWL point (24.801,5e-05)
v1: Removing PWL point (24.813,-3e-05)
v1: Removing PWL point (24.82,0.0001)
v1: Removing PWL point (24.84,-3e-05)
v1: Removing PWL point (24.859,0.00012)
v1: Removing PWL point (24.874,0.00014)
v1: Removing PWL point (24.88,0.0001)
v1: Removing PWL point (24.898,-0.00028)
v1: Removing PWL point (24.918,4e-05)
v1: Removing PWL point (24.926,3e-05)
v1: Removing PWL point (24.933,-0.00016)
v1: Removing PWL point (24.947,4e-05)
v1: Removing PWL point (24.958,-4e-05)
v1: Removing PWL point (24.98,-0.0001)
v1: Removing PWL point (25.003,0.00016)
v1: Removing PWL point (25.018,6e-05)
v1: Removing PWL point (25.04,-8e-05)
v1: Removing PWL point (25.045,7e-05)
v1: Removing PWL point (25.052,1e-05)
v1: Removing PWL point (25.061,4e-05)
v1: Removing PWL point (25.078,-0.00017)
v1: Removing PWL point (25.098,0.00013)
v1: Removing PWL point (25.115,3e-05)
v1: Removing PWL point (25.122,0)
v1: Removing PWL point (25.136,0.00012)
v1: Removing PWL point (25.159,-0.00022)
v1: Removing PWL point (25.182,0.00023)
v1: Removing PWL point (25.205,-0.00023)
v1: Removing PWL point (25.229,-0.00014)
v1: Removing PWL point (25.24,4e-05)
v1: Removing PWL point (25.259,-6e-05)
v1: Removing PWL point (25.281,1e-05)
v1: Removing PWL point (25.303,2e-05)
v1: Removing PWL point (25.332,-8e-05)
v1: Removing PWL point (25.355,0.00013)
v1: Removing PWL point (25.369,-0.00011)
v1: Removing PWL point (25.376,6e-05)
v1: Removing PWL point (25.384,0.0001)
v1: Removing PWL point (25.41,0.0003)
v1: Removing PWL point (25.431,-0.00027)
v1: Removing PWL point (25.445,-0.00025)
v1: Removing PWL point (25.46,-0.00016)
v1: Removing PWL point (25.484,-0.00029)
v1: Removing PWL point (25.505,0.00015)
v1: Removing PWL point (25.534,1e-05)
v1: Removing PWL point (25.56,1e-05)
v1: Removing PWL point (25.571,0.00012)
v1: Removing PWL point (25.58,1e-05)
v1: Removing PWL point (25.61,-2e-05)
v1: Removing PWL point (25.632,-6e-05)
v1: Removing PWL point (25.649,4e-05)
v1: Removing PWL point (25.663,-0.0002)
v1: Removing PWL point (25.685,6e-05)
v1: Removing PWL point (25.707,7e-05)
v1: Removing PWL point (25.722,5e-05)
v1: Removing PWL point (25.736,-0.00014)
v1: Removing PWL point (25.759,0.00014)
v1: Removing PWL point (25.783,0.00025)
v1: Removing PWL point (25.796,-0.00015)
v1: Removing PWL point (25.819,-3e-05)
v1: Removing PWL point (25.843,4e-05)
v1: Removing PWL point (25.856,0.00017)
v1: Removing PWL point (25.89,1e-05)
v1: Removing PWL point (25.91,-0.0001)
v1: Removing PWL point (25.917,-0.00016)
v1: Removing PWL point (25.94,0)
v1: Removing PWL point (25.962,-7e-05)
v1: Removing PWL point (25.986,0.00012)
v1: Removing PWL point (26.007,-4e-05)
v1: Removing PWL point (26.041,2e-05)
v1: Removing PWL point (26.062,-0.00011)
v1: Removing PWL point (26.09,-7e-05)
v1: Removing PWL point (26.114,0.00013)
v1: Removing PWL point (26.134,-8e-05)
v1: Removing PWL point (26.142,-0.0001)
v1: Removing PWL point (26.165,8e-05)
v1: Removing PWL point (26.19,-0.00018)
v1: Removing PWL point (26.209,0.0001)
v1: Removing PWL point (26.216,-2e-05)
v1: Removing PWL point (26.242,-1e-05)
v1: Removing PWL point (26.263,-0.00017)
v1: Removing PWL point (26.292,9e-05)
v1: Removing PWL point (26.314,-8e-05)
v1: Removing PWL point (26.339,8e-05)
v1: Removing PWL point (26.343,-0.00022)
v1: Removing PWL point (26.368,0.00013)
v1: Removing PWL point (26.39,-5e-05)
v1: Removing PWL point (26.412,0.00012)
v1: Removing PWL point (26.419,-3e-05)
v1: Removing PWL point (26.443,-7e-05)
v1: Removing PWL point (26.464,-6e-05)
v1: Removing PWL point (26.479,-1e-05)
v1: Removing PWL point (26.502,-4e-05)
v1: Removing PWL point (26.525,-0.00016)
v1: Removing PWL point (26.54,0.00014)
v1: Removing PWL point (26.562,1e-05)
v1: Removing PWL point (26.592,-0.00012)
v1: Removing PWL point (26.599,-5e-05)
v1: Removing PWL point (26.622,-5e-05)
v1: Removing PWL point (26.644,0.0002)
v1: Removing PWL point (26.668,-4e-05)
v1: Removing PWL point (26.682,0.00015)
v1: Removing PWL point (26.704,-5e-05)
v1: Removing PWL point (26.719,3e-05)
v1: Removing PWL point (26.742,0)
v1: Removing PWL point (26.766,-5e-05)
v1: Removing PWL point (26.777,9e-05)
v1: Removing PWL point (26.786,-1e-05)
v1: Removing PWL point (26.804,6e-05)
v1: Removing PWL point (26.825,3e-05)
v1: Removing PWL point (26.839,8e-05)
v1: Removing PWL point (26.846,-0.0001)
v1: Removing PWL point (26.871,-6e-05)
v1: Removing PWL point (26.886,-7e-05)
v1: Removing PWL point (26.897,-4e-05)
v1: Removing PWL point (26.906,2e-05)
v1: Removing PWL point (26.923,-4e-05)
v1: Removing PWL point (26.946,-0.0001)
v1: Removing PWL point (26.957,1e-05)
v1: Removing PWL point (26.966,2e-05)
v1: Removing PWL point (26.983,1e-05)
v1: Removing PWL point (27.005,0)
v1: Removing PWL point (27.018,1e-05)
v1: Removing PWL point (27.026,0)
v1: Removing PWL point (27.047,3e-05)
v1: Removing PWL point (27.064,-4e-05)
v1: Removing PWL point (27.071,-6e-05)
v1: Removing PWL point (27.077,0)
v1: Removing PWL point (27.094,-3e-05)
v1: Removing PWL point (27.103,3e-05)
v1: Removing PWL point (27.125,0)
v1: Removing PWL point (27.139,1e-05)
v1: Removing PWL point (27.146,-2e-05)
v1: Removing PWL point (27.163,-2e-05)
v1: Removing PWL point (27.185,3e-05)
v1: Removing PWL point (27.198,1e-05)
v1: Removing PWL point (27.224,0)
v1: Removing PWL point (27.253,-3e-05)
v1: Removing PWL point (27.274,0)
v1: Removing PWL point (27.298,-1e-05)
v1: Removing PWL point (27.306,-2e-05)
v1: Removing PWL point (27.328,-2e-05)
v1: Removing PWL point (27.35,2e-05)
v1: Removing PWL point (27.371,-3e-05)
v1: Removing PWL point (27.379,0)
v1: Removing PWL point (27.391,-4e-05)
v1: Removing PWL point (27.404,-4e-05)
v1: Removing PWL point (27.426,-4e-05)
v1: Removing PWL point (27.448,-6e-05)
v1: Removing PWL point (27.462,3e-05)
v1: Removing PWL point (27.484,-4e-05)
v1: Removing PWL point (27.497,-1e-05)
v1: Removing PWL point (27.514,-3e-05)
v1: Removing PWL point (27.523,-2e-05)
v1: Removing PWL point (27.53,1e-05)
v1: Removing PWL point (27.553,-2e-05)
v1: Removing PWL point (27.575,0)
v1: Removing PWL point (27.59,-4e-05)
v1: Removing PWL point (27.607,2e-05)
v1: Removing PWL point (27.628,-2e-05)
v1: Removing PWL point (27.65,-2e-05)
v1: Removing PWL point (27.664,1e-05)
v1: Removing PWL point (27.679,0)
v1: Removing PWL point (27.702,1e-05)
v1: Removing PWL point (27.705,-1e-05)
v1: Removing PWL point (27.715,-5e-05)
v1: Removing PWL point (27.725,1e-05)
v1: Removing PWL point (27.748,2e-05)
v1: Removing PWL point (27.76,-1e-05)
v1: Removing PWL point (27.785,-2e-05)
v1: Removing PWL point (27.808,-5e-05)
v1: Removing PWL point (27.822,0)
v1: Removing PWL point (27.829,-3e-05)
v1: Removing PWL point (27.852,2e-05)
v1: Removing PWL point (27.868,2e-05)
v1: Removing PWL point (27.891,-5e-05)
v1: Removing PWL point (27.905,1e-05)
v1: Removing PWL point (27.928,1e-05)
v1: Removing PWL point (27.965,0)
v1: Removing PWL point (27.986,-3e-05)
v1: Removing PWL point (28,-4e-05)
v1: Removing PWL point (28.009,0)
v1: Removing PWL point (28.025,0)
v1: Removing PWL point (28.048,-4e-05)
v1: Removing PWL point (28.06,-1e-05)
v1: Removing PWL point (28.069,0)
v1: Removing PWL point (28.083,1e-05)
v1: Removing PWL point (28.108,0)
v1: Removing PWL point (28.12,-1e-05)
v1: Removing PWL point (28.129,-2e-05)
v1: Removing PWL point (28.144,0)
v1: Removing PWL point (28.166,-1e-05)
v1: Removing PWL point (28.18,-3e-05)
v1: Removing PWL point (28.19,0)
v1: Removing PWL point (28.205,-2e-05)
v1: Removing PWL point (28.235,-4e-05)
v1: Removing PWL point (28.241,0)
v1: Removing PWL point (28.249,-3e-05)
v1: Removing PWL point (28.265,-4e-05)
v1: Removing PWL point (28.29,-2e-05)
v1: Removing PWL point (28.3,-1e-05)
v1: Removing PWL point (28.309,3e-05)
v1: Removing PWL point (28.324,-5e-05)
v1: Removing PWL point (28.33,-4e-05)
v1: Removing PWL point (28.347,0)
v1: Removing PWL point (28.37,-4e-05)
v1: Removing PWL point (28.386,3e-05)
v1: Removing PWL point (28.408,-1e-05)
v1: Removing PWL point (28.429,2e-05)
v1: Removing PWL point (28.436,-4e-05)
v1: Removing PWL point (28.445,2e-05)
v1: Removing PWL point (28.468,1e-05)
v1: Removing PWL point (28.49,0)
v1: Removing PWL point (28.51,-7e-05)
v1: Removing PWL point (28.535,-1e-05)
v1: Removing PWL point (28.556,-2e-05)
v1: Removing PWL point (28.559,0)
v1: Removing PWL point (28.563,2e-05)
v1: Removing PWL point (28.57,-2e-05)
v1: Removing PWL point (28.586,0)
v1: Removing PWL point (28.61,1e-05)
v1: Removing PWL point (28.623,-2e-05)
v1: Removing PWL point (28.648,1e-05)
v1: Removing PWL point (28.67,0)
v1: Removing PWL point (28.69,-3e-05)
v1: Removing PWL point (28.708,-3e-05)
v1: Removing PWL point (28.739,0)
v1: Removing PWL point (28.743,2e-05)
v1: Removing PWL point (28.75,-3e-05)
v1: Removing PWL point (28.768,1e-05)
v1: Removing PWL point (28.791,0)
v1: Removing PWL point (28.804,-3e-05)
v1: Removing PWL point (28.811,0)
v1: Removing PWL point (28.828,0)
v1: Removing PWL point (28.832,-1e-05)
v1: Removing PWL point (28.85,0)
v1: Removing PWL point (28.862,-0.0001)
v1: Removing PWL point (28.871,-2e-05)
v1: Removing PWL point (28.889,-2e-05)
v1: Removing PWL point (28.918,-2e-05)
v1: Removing PWL point (28.922,-3e-05)
v1: Removing PWL point (28.941,1e-05)
v1: Removing PWL point (28.946,-1e-05)
v1: Removing PWL point (28.97,-2e-05)
v1: Removing PWL point (28.991,-1e-05)
v1: Removing PWL point (29.015,0)
v1: Removing PWL point (29.042,0)
v1: Removing PWL point (29.051,-1e-05)
v1: Removing PWL point (29.068,0)
v1: Removing PWL point (29.09,1e-05)
v1: Removing PWL point (29.112,6e-05)
v1: Removing PWL point (29.127,-0.0001)
v1: Removing PWL point (29.15,-4e-05)
v1: Removing PWL point (29.162,0.00035)
v1: Removing PWL point (29.179,-0.00012)
v1: Removing PWL point (29.185,-0.00022)
v1: Removing PWL point (29.192,-0.00072)
v1: Removing PWL point (29.218,0.00073)
v1: Removing PWL point (29.24,-0.00051)
v1: Removing PWL point (29.255,0.00012)
v1: Removing PWL point (29.27,0.00027)
v1: Removing PWL point (29.294,7e-05)
v1: Removing PWL point (29.317,0.00039)
v1: Removing PWL point (29.33,7e-05)
v1: Removing PWL point (29.37,-0.0001)
v1: Removing PWL point (29.391,0.00036)
v1: Removing PWL point (29.395,-0.0007)
v1: Removing PWL point (29.42,0.00011)
v1: Removing PWL point (29.443,0.00013)
v1: Removing PWL point (29.458,0.0004)
v1: Removing PWL point (29.473,-0.00016)
v1: Removing PWL point (29.493,-0.0005)
v1: Removing PWL point (29.496,0.00043)
v1: Removing PWL point (29.518,0.00011)
v1: Removing PWL point (29.532,2e-05)
v1: Removing PWL point (29.547,0.00011)
v1: Removing PWL point (29.552,-0.00017)
v1: Removing PWL point (29.57,-0.00041)
v1: Removing PWL point (29.593,-1e-05)
v1: Removing PWL point (29.605,0.0002)
v1: Removing PWL point (29.62,3e-05)
v1: Removing PWL point (29.646,3e-05)
v1: Removing PWL point (29.67,3e-05)
v1: Removing PWL point (29.674,0.00017)
v1: Removing PWL point (29.697,-5e-05)
v1: Removing PWL point (29.72,-7e-05)
v1: Removing PWL point (29.725,-0.0002)
v1: Removing PWL point (29.732,-0.00017)
v1: Removing PWL point (29.751,0.00018)
v1: Removing PWL point (29.773,-0.00031)
v1: Removing PWL point (29.796,-5e-05)
v1: Removing PWL point (29.81,-0.00029)
v1: Removing PWL point (29.832,5e-05)
v1: Removing PWL point (29.845,-0.00023)
v1: Removing PWL point (29.854,0.0002)
v1: Removing PWL point (29.87,0.00012)
v1: Removing PWL point (29.9,0.00013)
v1: Removing PWL point (29.905,4e-05)
v1: Removing PWL point (29.921,-0.00013)
v1: Removing PWL point (29.931,3e-05)
v1: Removing PWL point (29.953,0.00011)
v1: Removing PWL point (29.975,0.00032)
v1: Removing PWL point (29.989,0.00012)
v1: Removing PWL point (29.997,0.00011)
v1: Removing PWL point (30.013,-8e-05)
v1: Removing PWL point (30.025,0.00018)
v1: Removing PWL point (30.034,-0.00025)
v1: Removing PWL point (30.05,-0.00033)
v1: Removing PWL point (30.073,0.00022)
v1: Removing PWL point (30.085,-0.00035)
v1: Removing PWL point (30.101,-0.00012)
v1: Removing PWL point (30.11,-0.00019)
v1: Removing PWL point (30.132,8e-05)
v1: Removing PWL point (30.145,0.00034)
v1: Removing PWL point (30.154,0.0002)
v1: Removing PWL point (30.178,-0.00012)
v1: Removing PWL point (30.202,0.00011)
v1: Removing PWL point (30.215,0.0004)
v1: Removing PWL point (30.23,-3e-05)
v1: Removing PWL point (30.252,0.00043)
v1: Removing PWL point (30.275,-0.00034)
v1: Removing PWL point (30.29,2e-05)
v1: Removing PWL point (30.312,-0.00063)
v1: Removing PWL point (30.334,7e-05)
v1: Removing PWL point (30.351,0.00018)
v1: Removing PWL point (30.38,8e-05)
v1: Removing PWL point (30.403,-0.00023)
v1: Removing PWL point (30.409,-0.00018)
v1: Removing PWL point (30.433,5e-05)
v1: Removing PWL point (30.455,-9e-05)
v1: Removing PWL point (30.478,0.0001)
v1: Removing PWL point (30.492,-9e-05)
v1: Removing PWL point (30.499,2e-05)
v1: Removing PWL point (30.515,-8e-05)
v1: Removing PWL point (30.531,6e-05)
v1: Removing PWL point (30.552,-5e-05)
v1: Removing PWL point (30.583,6e-05)
v1: Removing PWL point (30.589,0.00011)
v1: Removing PWL point (30.612,-0.0001)
v1: Removing PWL point (30.635,-3e-05)
v1: Removing PWL point (30.658,-1e-05)
v1: Removing PWL point (30.681,8e-05)
v1: Removing PWL point (30.694,-3e-05)
v1: Removing PWL point (30.709,-0.00013)
v1: Removing PWL point (30.732,-4e-05)
v1: Removing PWL point (30.754,5e-05)
v1: Removing PWL point (30.769,0.0001)
v1: Removing PWL point (30.776,8e-05)
v1: Removing PWL point (30.792,-0.00014)
v1: Removing PWL point (30.815,0.00026)
v1: Removing PWL point (30.829,-0.00013)
v1: Removing PWL point (30.836,-0.00018)
v1: Removing PWL point (30.86,-7e-05)
v1: Removing PWL point (30.883,1e-05)
v1: Removing PWL point (30.89,-0.00015)
v1: Removing PWL point (30.897,8e-05)
v1: Removing PWL point (30.912,-0.0001)
v1: Removing PWL point (30.935,2e-05)
v1: Removing PWL point (30.958,0.00013)
v1: Removing PWL point (30.972,-0.00022)
v1: Removing PWL point (30.979,-1e-05)
v1: Removing PWL point (30.995,2e-05)
v1: Removing PWL point (31.009,5e-05)
v1: Removing PWL point (31.017,-0.00015)
v1: Removing PWL point (31.034,-0.00038)
v1: Removing PWL point (31.063,0.00025)
v1: Removing PWL point (31.068,-3e-05)
v1: Removing PWL point (31.084,0)
v1: Removing PWL point (31.092,-0.00016)
v1: Removing PWL point (31.141,0.0003)
v1: Removing PWL point (31.144,5e-05)
v1: Removing PWL point (31.16,-0.0004)
v1: Removing PWL point (31.183,9e-05)
v1: Removing PWL point (31.216,0.00026)
v1: Removing PWL point (31.24,6e-05)
v1: Removing PWL point (31.26,-0.00012)
v1: Removing PWL point (31.272,5e-05)
v1: Removing PWL point (31.295,-1e-05)
v1: Removing PWL point (31.334,1e-05)
v1: Removing PWL point (31.342,-0.0001)
v1: Removing PWL point (31.363,-6e-05)
v1: Removing PWL point (31.386,0.00018)
v1: Removing PWL point (31.394,0.00013)
v1: Removing PWL point (31.399,0.00015)
v1: Removing PWL point (31.417,0.0002)
v1: Removing PWL point (31.439,-0.00039)
v1: Removing PWL point (31.461,-5e-05)
v1: Removing PWL point (31.476,0)
v1: Removing PWL point (31.498,-6e-05)
v1: Removing PWL point (31.513,0.00011)
v1: Removing PWL point (31.536,0.0002)
v1: Removing PWL point (31.573,-0.0001)
v1: Removing PWL point (31.589,-0.00016)
v1: Removing PWL point (31.593,-3e-05)
v1: Removing PWL point (31.609,7e-05)
v1: Removing PWL point (31.618,3e-05)
v1: Removing PWL point (31.64,-9e-05)
v1: Removing PWL point (31.664,-6e-05)
v1: Removing PWL point (31.678,5e-05)
v1: Removing PWL point (31.696,5e-05)
v1: Removing PWL point (31.715,-0.00026)
v1: Removing PWL point (31.74,8e-05)
v1: Removing PWL point (31.752,0.00017)
v1: Removing PWL point (31.775,7e-05)
v1: Removing PWL point (31.799,0.00014)
v1: Removing PWL point (31.811,-7e-05)
v1: Removing PWL point (31.819,2e-05)
v1: Removing PWL point (31.843,0.00024)
v1: Removing PWL point (31.866,-3e-05)
v1: Removing PWL point (31.879,-0.0001)
v1: Removing PWL point (31.894,-0.00019)
v1: Removing PWL point (31.901,-9e-05)
v1: Removing PWL point (31.919,-0.0002)
v1: Removing PWL point (31.931,-1e-05)
v1: Removing PWL point (31.94,0.00012)
v1: Removing PWL point (31.956,-9e-05)
v1: Removing PWL point (31.977,8e-05)
v1: Removing PWL point (31.991,4e-05)
v1: Removing PWL point (31.999,-5e-05)
v1: Removing PWL point (32.016,-4e-05)
v1: Removing PWL point (32.046,0.0001)
v1: Removing PWL point (32.051,-2e-05)
v1: Removing PWL point (32.067,1e-05)
v1: Removing PWL point (32.074,0)
v1: Removing PWL point (32.08,0.00021)
v1: Removing PWL point (32.099,-5e-05)
v1: Removing PWL point (32.129,-8e-05)
v1: Removing PWL point (32.143,0)
v1: Removing PWL point (32.159,-4e-05)
v1: Removing PWL point (32.181,1e-05)
v1: Removing PWL point (32.196,1e-05)
v1: Removing PWL point (32.219,6e-05)
v1: Removing PWL point (32.248,-0.00012)
v1: Removing PWL point (32.254,5e-05)
v1: Removing PWL point (32.257,-6e-05)
v1: Removing PWL point (32.278,-3e-05)
v1: Removing PWL point (32.301,-0.00021)
v1: Removing PWL point (32.324,-2e-05)
v1: Removing PWL point (32.346,9e-05)
v1: Removing PWL point (32.361,4e-05)
v1: Removing PWL point (32.374,-2e-05)
v1: Removing PWL point (32.38,-3e-05)
v1: Removing PWL point (32.399,8e-05)
v1: Removing PWL point (32.421,-1e-05)
v1: Removing PWL point (32.434,-2e-05)
v1: Removing PWL point (32.448,-3e-05)
v1: Removing PWL point (32.459,-5e-05)
v1: Removing PWL point (32.481,-3e-05)
v1: Removing PWL point (32.495,2e-05)
v1: Removing PWL point (32.5,0)
v1: Removing PWL point (32.526,-1e-05)
v1: Removing PWL point (32.548,-4e-05)
v1: Removing PWL point (32.554,0)
v1: Removing PWL point (32.568,-8e-05)
v1: Removing PWL point (32.58,1e-05)
v1: Removing PWL point (32.601,1e-05)
v1: Removing PWL point (32.624,1e-05)
v1: Removing PWL point (32.643,1e-05)
v1: Removing PWL point (32.661,-6e-05)
v1: Removing PWL point (32.674,4e-05)
v1: Removing PWL point (32.682,-7e-05)
v1: Removing PWL point (32.699,4e-05)
v1: Removing PWL point (32.72,-2e-05)
v1: Removing PWL point (32.733,-1e-05)
v1: Removing PWL point (32.75,-2e-05)
v1: Removing PWL point (32.758,0)
v1: Removing PWL point (32.779,-1e-05)
v1: Removing PWL point (32.804,-4e-05)
v1: Removing PWL point (32.826,2e-05)
v1: Removing PWL point (32.84,0)
v1: Removing PWL point (32.845,-1e-05)
v1: Removing PWL point (32.853,-2e-05)
v1: Removing PWL point (32.862,0)
v1: Removing PWL point (32.879,1e-05)
v1: Removing PWL point (32.901,0)
v1: Removing PWL point (32.923,0)
v1: Removing PWL point (32.961,2e-05)
v1: Removing PWL point (32.973,-3e-05)
v1: Removing PWL point (32.982,1e-05)
v1: Removing PWL point (32.999,-2e-05)
v1: Removing PWL point (33.028,-5e-05)
v1: Removing PWL point (33.033,1e-05)
v1: Removing PWL point (33.049,-2e-05)
v1: Removing PWL point (33.059,1e-05)
v1: Removing PWL point (33.082,-5e-05)
v1: Removing PWL point (33.102,-1e-05)
v1: Removing PWL point (33.117,2e-05)
v1: Removing PWL point (33.124,-3e-05)
v1: Removing PWL point (33.142,-9e-05)
v1: Removing PWL point (33.163,1e-05)
v1: Removing PWL point (33.176,0)
v1: Removing PWL point (33.183,-1e-05)
v1: Removing PWL point (33.201,1e-05)
v1: Removing PWL point (33.229,0)
v1: Removing PWL point (33.253,2e-05)
v1: Removing PWL point (33.285,-0.00011)
v1: Removing PWL point (33.306,5e-05)
v1: Removing PWL point (33.328,0)
v1: Removing PWL point (33.343,-2e-05)
v1: Removing PWL point (33.364,0)
v1: Removing PWL point (33.381,-4e-05)
v1: Removing PWL point (33.404,2e-05)
v1: Removing PWL point (33.416,-2e-05)
v1: Removing PWL point (33.43,2e-05)
v1: Removing PWL point (33.44,-2e-05)
v1: Removing PWL point (33.453,5e-05)
v1: Removing PWL point (33.463,-1e-05)
v1: Removing PWL point (33.477,-2e-05)
v1: Removing PWL point (33.483,1e-05)
v1: Removing PWL point (33.508,-3e-05)
v1: Removing PWL point (33.531,4e-05)
v1: Removing PWL point (33.539,-7e-05)
v1: Removing PWL point (33.553,-1e-05)
v1: Removing PWL point (33.561,-4e-05)
v1: Removing PWL point (33.582,-1e-05)
v1: Removing PWL point (33.618,1e-05)
v1: Removing PWL point (33.634,-1e-05)
v1: Removing PWL point (33.645,-8e-05)
v1: Removing PWL point (33.656,-4e-05)
v1: Removing PWL point (33.664,5e-05)
v1: Removing PWL point (33.682,0)
v1: Removing PWL point (33.712,-4e-05)
v1: Removing PWL point (33.716,0)
v1: Removing PWL point (33.741,-1e-05)
v1: Removing PWL point (33.763,-7e-05)
v1: Removing PWL point (33.786,2e-05)
v1: Removing PWL point (33.8,0)
v1: Removing PWL point (33.807,-5e-05)
v1: Removing PWL point (33.831,3e-05)
v1: Removing PWL point (33.836,-7e-05)
v1: Removing PWL point (33.844,-2e-05)
v1: Removing PWL point (33.861,-3e-05)
v1: Removing PWL point (33.883,2e-05)
v1: Removing PWL point (33.895,-3e-05)
v1: Removing PWL point (33.921,-1e-05)
[...]
v1: Removing PWL point (57.08,-0.00014)
v1: Removing PWL point (57.117,0.00013)
v1: Removing PWL point (57.143,9e-05)
v1: Removing PWL point (57.146,-6e-05)
v1: Removing PWL point (57.17,-9e-05)
v1: Removing PWL point (57.193,5e-05)
v1: Removing PWL point (57.209,-1e-05)
v1: Removing PWL point (57.222,-6e-05)
v1: Removing PWL point (57.246,-1e-05)
v1: Removing PWL point (57.268,-0.00019)
v1: Removing PWL point (57.29,4e-05)
v1: Removing PWL point (57.296,7e-05)
v1: Removing PWL point (57.322,0.00027)
v1: Removing PWL point (57.346,-0.00013)
v1: Removing PWL point (57.356,-9e-05)
v1: Removing PWL point (57.373,-2e-05)
v1: Removing PWL point (57.395,-0.00015)
v1: Removing PWL point (57.418,-4e-05)
v1: Removing PWL point (57.425,-6e-05)
v1: Removing PWL point (57.448,-0.0002)
v1: Removing PWL point (57.47,0.00018)
v1: Removing PWL point (57.485,-5e-05)
v1: Removing PWL point (57.5,4e-05)
v1: Removing PWL point (57.525,-0.00021)
v1: Removing PWL point (57.547,-2e-05)
v1: Removing PWL point (57.567,-0.00011)
v1: Removing PWL point (57.573,-0.00012)
v1: Removing PWL point (57.598,-0.00011)
v1: Removing PWL point (57.623,3e-05)
v1: Removing PWL point (57.634,9e-05)
v1: Removing PWL point (57.675,6e-05)
v1: Removing PWL point (57.697,-0.00012)
v1: Removing PWL point (57.705,-2e-05)
v1: Removing PWL point (57.726,-1e-05)
v1: Removing PWL point (57.74,-0.0002)
v1: Removing PWL point (57.747,5e-05)
v1: Removing PWL point (57.763,-2e-05)
v1: Removing PWL point (57.786,1e-05)
v1: Removing PWL point (57.809,-1e-05)
v1: Removing PWL point (57.821,-0.0002)
v1: Removing PWL point (57.829,9e-05)
v1: Removing PWL point (57.846,-8e-05)
v1: Removing PWL point (57.867,0.00015)
v1: Removing PWL point (57.874,-8e-05)
v1: Removing PWL point (57.884,-8e-05)
v1: Removing PWL point (57.906,-3e-05)
v1: Removing PWL point (57.936,-2e-05)
v1: Removing PWL point (57.951,-0.00018)
v1: Removing PWL point (57.974,7e-05)
v1: Removing PWL point (57.989,-0.0001)
v1: Removing PWL point (58.001,-3e-05)
v1: Removing PWL point (58.008,3e-05)
v1: Removing PWL point (58.026,6e-05)
v1: Removing PWL point (58.048,-5e-05)
v1: Removing PWL point (58.061,0.00015)
v1: Removing PWL point (58.068,0)
v1: Removing PWL point (58.086,-5e-05)
v1: Removing PWL point (58.108,-9e-05)
v1: Removing PWL point (58.121,1e-05)
v1: Removing PWL point (58.128,2e-05)
v1: Removing PWL point (58.145,-3e-05)
v1: Removing PWL point (58.152,0)
v1: Removing PWL point (58.167,6e-05)
v1: Removing PWL point (58.174,3e-05)
v1: Removing PWL point (58.181,0)
v1: Removing PWL point (58.19,-1e-05)
v1: Removing PWL point (58.206,7e-05)
v1: Removing PWL point (58.229,2e-05)
v1: Removing PWL point (58.251,6e-05)
v1: Removing PWL point (58.274,-0.00018)
v1: Removing PWL point (58.29,7e-05)
v1: Removing PWL point (58.301,-0.00015)
v1: Removing PWL point (58.309,-0.00011)
v1: Removing PWL point (58.326,-6e-05)
v1: Removing PWL point (58.347,4e-05)
v1: Removing PWL point (58.355,2e-05)
v1: Removing PWL point (58.36,1e-05)
v1: Removing PWL point (58.375,-5e-05)
v1: Removing PWL point (58.386,0)
v1: Removing PWL point (58.408,8e-05)
v1: Removing PWL point (58.431,4e-05)
v1: Removing PWL point (58.454,1e-05)
v1: Removing PWL point (58.468,-6e-05)
v1: Removing PWL point (58.491,2e-05)
v1: Removing PWL point (58.506,-0.00017)
v1: Removing PWL point (58.528,-4e-05)
v1: Removing PWL point (58.54,2e-05)
v1: Removing PWL point (58.557,4e-05)
v1: Removing PWL point (58.566,-5e-05)
v1: Removing PWL point (58.589,-9e-05)
v1: Removing PWL point (58.593,-1e-05)
v1: Removing PWL point (58.6,3e-05)
v1: Removing PWL point (58.609,2e-05)
v1: Removing PWL point (58.648,-4e-05)
v1: Removing PWL point (58.653,0)
v1: Removing PWL point (58.661,0.0001)
v1: Removing PWL point (58.669,-0.00011)
v1: Removing PWL point (58.686,5e-05)
v1: Removing PWL point (58.709,-1e-05)
v1: Removing PWL point (58.72,2e-05)
v1: Removing PWL point (58.729,0)
v1: Removing PWL point (58.745,-3e-05)
v1: Removing PWL point (58.77,1e-05)
v1: Removing PWL point (58.792,-2e-05)
v1: Removing PWL point (58.804,1e-05)
v1: Removing PWL point (58.834,-2e-05)
v1: Removing PWL point (58.858,-1e-05)
v1: Removing PWL point (58.865,-2e-05)
v1: Removing PWL point (58.87,1e-05)
v1: Removing PWL point (58.89,-2e-05)
v1: Removing PWL point (58.911,1e-05)
v1: Removing PWL point (58.923,-1e-05)
v1: Removing PWL point (58.932,0)
v1: Removing PWL point (58.949,1e-05)
v1: Removing PWL point (58.971,-6e-05)
v1: Removing PWL point (58.983,3e-05)
v1: Removing PWL point (58.992,-1e-05)
v1: Removing PWL point (59.009,-3e-05)
v1: Removing PWL point (59.04,2e-05)
v1: Removing PWL point (59.043,-5e-05)
v1: Removing PWL point (59.06,-3e-05)
v1: Removing PWL point (59.068,-2e-05)
v1: Removing PWL point (59.09,0)
v1: Removing PWL point (59.114,0)
v1: Removing PWL point (59.136,-2e-05)
v1: Removing PWL point (59.152,1e-05)
v1: Removing PWL point (59.164,-2e-05)
v1: Removing PWL point (59.17,2e-05)
v1: Removing PWL point (59.19,-3e-05)
v1: Removing PWL point (59.216,1e-05)
v1: Removing PWL point (59.225,-1e-05)
v1: Removing PWL point (59.24,-2e-05)
v1: Removing PWL point (59.249,-1e-05)
v1: Removing PWL point (59.268,-4e-05)
v1: Removing PWL point (59.285,-1e-05)
v1: Removing PWL point (59.301,1e-05)
v1: Removing PWL point (59.314,-7e-05)
v1: Removing PWL point (59.341,-4e-05)
v1: Removing PWL point (59.362,-1e-05)
v1: Removing PWL point (59.368,1e-05)
v1: Removing PWL point (59.391,-2e-05)
v1: Removing PWL point (59.413,-2e-05)
v1: Removing PWL point (59.429,2e-05)
v1: Removing PWL point (59.451,-5e-05)
v1: Removing PWL point (59.463,1e-05)
v1: Removing PWL point (59.472,-7e-05)
v1: Removing PWL point (59.491,3e-05)
v1: Removing PWL point (59.518,-1e-05)
v1: Removing PWL point (59.523,0)
v1: Removing PWL point (59.546,1e-05)
v1: Removing PWL point (59.56,-4e-05)
v1: Removing PWL point (59.569,-2e-05)
v1: Removing PWL point (59.593,5e-05)
v1: Removing PWL point (59.616,-7e-05)
v1: Removing PWL point (59.639,2e-05)
v1: Removing PWL point (59.643,-8e-05)
v1: Removing PWL point (59.652,1e-05)
v1: Removing PWL point (59.667,3e-05)
v1: Removing PWL point (59.692,-2e-05)
v1: Removing PWL point (59.712,-3e-05)
v1: Removing PWL point (59.719,-1e-05)
v1: Removing PWL point (59.728,-1e-05)
v1: Removing PWL point (59.751,1e-05)
v1: Removing PWL point (59.773,-1e-05)
v1: Removing PWL point (59.81,4e-05)
v1: Removing PWL point (59.818,-4e-05)
v1: Removing PWL point (59.841,3e-05)
v1: Removing PWL point (59.853,2e-05)
v1: Removing PWL point (59.871,-3e-05)
v1: Removing PWL point (59.893,-2e-05)
v1: Removing PWL point (59.914,0)
v1: Removing PWL point (59.931,-1e-05)
v1: Removing PWL point (59.954,-5e-05)
v1: Removing PWL point (59.966,8e-05)
v1: Removing PWL point (59.973,-2e-05)
v1: Removing PWL point (59.99,-1e-05)
v1: Removing PWL point (59.995,0)
v1: Removing PWL point (60.021,0)
v1: Removing PWL point (60.026,-4e-05)
v1: Removing PWL point (60.033,-1e-05)
v1: Removing PWL point (60.052,2e-05)
v1: Removing PWL point (60.073,-8e-05)
v1: Removing PWL point (60.096,3e-05)
v1: Removing PWL point (60.12,2e-05)
v1: Removing PWL point (60.133,-1e-05)
v1: Removing PWL point (60.146,-2e-05)
v1: Removing PWL point (60.153,-1e-05)
v1: Removing PWL point (60.171,-2e-05)
v1: Removing PWL point (60.194,-7e-05)
v1: Removing PWL point (60.205,-8e-05)
v1: Removing PWL point (60.215,3e-05)
v1: Removing PWL point (60.231,2e-05)
v1: Removing PWL point (60.254,3e-05)
v1: Removing PWL point (60.276,-1e-05)
v1: Removing PWL point (60.29,1e-05)
v1: Removing PWL point (60.297,-2e-05)
v1: Removing PWL point (60.319,1e-05)
v1: Removing PWL point (60.325,3e-05)
v1: Removing PWL point (60.334,0)
v1: Removing PWL point (60.351,0)
v1: Removing PWL point (60.373,-6e-05)
v1: Removing PWL point (60.396,-1e-05)
v1: Removing PWL point (60.411,3e-05)
v1: Removing PWL point (60.433,2e-05)
v1: Removing PWL point (60.446,-2e-05)
v1: Removing PWL point (60.454,-5e-05)
v1: Removing PWL point (60.47,0)
v1: Removing PWL point (60.475,2e-05)
v1: Removing PWL point (60.501,-1e-05)
v1: Removing PWL point (60.505,1e-05)
v1: Removing PWL point (60.515,-0.00011)
v1: Removing PWL point (60.531,-7e-05)
v1: Removing PWL point (60.554,4e-05)
v1: Removing PWL point (60.575,-2e-05)
v1: Removing PWL point (60.598,-1e-05)
v1: Removing PWL point (60.613,1e-05)
v1: Removing PWL point (60.637,1e-05)
v1: Removing PWL point (60.649,-1e-05)
v1: Removing PWL point (60.655,0)
v1: Removing PWL point (60.672,-1e-05)
v1: Removing PWL point (60.697,0)
v1: Removing PWL point (60.711,3e-05)
v1: Removing PWL point (60.733,-0.00011)
v1: Removing PWL point (60.756,0.00028)
v1: Removing PWL point (60.778,-0.00055)
v1: Removing PWL point (60.801,-0.00012)
v1: Removing PWL point (60.816,-0.00014)
v1: Removing PWL point (60.828,0.00025)
v1: Removing PWL point (60.835,-6e-05)
v1: Removing PWL point (60.854,0.00043)
v1: Removing PWL point (60.876,6e-05)
v1: Removing PWL point (60.89,0.00025)
v1: Removing PWL point (60.898,0.00023)
v1: Removing PWL point (60.915,0.0002)
v1: Removing PWL point (60.937,-0.0002)
v1: Removing PWL point (60.948,0.00035)
v1: Removing PWL point (60.957,0.0001)
v1: Removing PWL point (60.991,-0.00022)
v1: Removing PWL point (61.002,-0.00056)
v1: Removing PWL point (61.008,-1e-05)
v1: Removing PWL point (61.024,9e-05)
v1: Removing PWL point (61.033,6e-05)
v1: Removing PWL point (61.055,-0.00049)
v1: Removing PWL point (61.068,-6e-05)
v1: Removing PWL point (61.076,-0.00022)
v1: Removing PWL point (61.092,0.00053)
v1: Removing PWL point (61.114,-6e-05)
v1: Removing PWL point (61.129,-0.00016)
v1: Removing PWL point (61.136,0.00047)
v1: Removing PWL point (61.152,-0.00025)
v1: Removing PWL point (61.182,-0.0001)
v1: Removing PWL point (61.19,-9e-05)
v1: Removing PWL point (61.204,0.00012)
v1: Removing PWL point (61.212,0.0001)
v1: Removing PWL point (61.236,0.00017)
v1: Removing PWL point (61.265,-0.00012)
v1: Removing PWL point (61.28,-0.00066)
v1: Removing PWL point (61.303,0.00058)
v1: Removing PWL point (61.308,-0.0003)
v1: Removing PWL point (61.316,0.0005)
v1: Removing PWL point (61.332,-0.00021)
v1: Removing PWL point (61.355,-0.00026)
v1: Removing PWL point (61.37,-0.00042)
v1: Removing PWL point (61.384,0.0003)
v1: Removing PWL point (61.392,0.00026)
v1: Removing PWL point (61.414,0.00022)
v1: Removing PWL point (61.429,-0.0001)
v1: Removing PWL point (61.436,-0.00016)
v1: Removing PWL point (61.46,7e-05)
v1: Removing PWL point (61.482,-0.00055)
v1: Removing PWL point (61.507,-0.00016)
v1: Removing PWL point (61.512,0)
v1: Removing PWL point (61.535,0.00011)
v1: Removing PWL point (61.559,6e-05)
v1: Removing PWL point (61.594,5e-05)
v1: Removing PWL point (61.617,-0.00038)
v1: Removing PWL point (61.633,0.00017)
v1: Removing PWL point (61.641,-0.00023)
v1: Removing PWL point (61.662,0.00021)
v1: Removing PWL point (61.685,0)
v1: Removing PWL point (61.692,-0.00033)
v1: Removing PWL point (61.714,0.00034)
v1: Removing PWL point (61.74,0.00017)
v1: Removing PWL point (61.76,3e-05)
v1: Removing PWL point (61.775,-5e-05)
v1: Removing PWL point (61.797,-0.00026)
v1: Removing PWL point (61.811,0.00021)
v1: Removing PWL point (61.819,-0.00011)
v1: Removing PWL point (61.835,-0.00016)
v1: Removing PWL point (61.866,-0.00018)
v1: Removing PWL point (61.872,0.00041)
v1: Removing PWL point (61.895,-0.00053)
v1: Removing PWL point (61.917,3e-05)
v1: Removing PWL point (61.94,0.00023)
v1: Removing PWL point (61.962,-0.00066)
v1: Removing PWL point (61.985,1e-05)
v1: Removing PWL point (61.993,0.00042)
v1: Removing PWL point (62.014,0.00029)
v1: Removing PWL point (62.04,-0.00024)
v1: Removing PWL point (62.059,0.00013)
v1: Removing PWL point (62.066,0.00026)
v1: Removing PWL point (62.074,-0.00017)
v1: Removing PWL point (62.099,0.00011)
v1: Removing PWL point (62.112,0.0002)
v1: Removing PWL point (62.143,-0.00021)
v1: Removing PWL point (62.165,9e-05)
v1: Removing PWL point (62.17,0.00038)
v1: Removing PWL point (62.186,9e-05)
v1: Removing PWL point (62.195,-1e-05)
v1: Removing PWL point (62.219,0.00013)
v1: Removing PWL point (62.241,0.00038)
v1: Removing PWL point (62.269,-2e-05)
v1: Removing PWL point (62.278,0.00041)
v1: Removing PWL point (62.292,-1e-05)
v1: Removing PWL point (62.298,-0.00038)
v1: Removing PWL point (62.315,-3e-05)
v1: Removing PWL point (62.339,-0.00064)
v1: Removing PWL point (62.35,5e-05)
v1: Removing PWL point (62.366,-0.00012)
v1: Removing PWL point (62.374,0.00011)
v1: Removing PWL point (62.397,9e-05)
v1: Removing PWL point (62.42,8e-05)
v1: Removing PWL point (62.444,0.00011)
v1: Removing PWL point (62.458,-0.00016)
v1: Removing PWL point (62.47,0.00014)
v1: Removing PWL point (62.478,-0.00011)
v1: Removing PWL point (62.495,-0.00028)
v1: Removing PWL point (62.518,0.0001)
v1: Removing PWL point (62.547,-0.00015)
v1: Removing PWL point (62.555,-5e-05)
v1: Removing PWL point (62.578,0.00014)
v1: Removing PWL point (62.6,-4e-05)
v1: Removing PWL point (62.616,0.00031)
v1: Removing PWL point (62.645,0.00019)
v1: Removing PWL point (62.659,-0.00012)
v1: Removing PWL point (62.667,2e-05)
v1: Removing PWL point (62.673,0)
v1: Removing PWL point (62.682,5e-05)
v1: Removing PWL point (62.699,0.00011)
v1: Removing PWL point (62.721,-0.00011)
v1: Removing PWL point (62.733,-2e-05)
v1: Removing PWL point (62.748,0)
v1: Removing PWL point (62.758,2e-05)
v1: Removing PWL point (62.781,-1e-05)
v1: Removing PWL point (62.795,0.00017)
v1: Removing PWL point (62.801,7e-05)
v1: Removing PWL point (62.818,-5e-05)
v1: Removing PWL point (62.849,-8e-05)
v1: Removing PWL point (62.853,0.00021)
v1: Removing PWL point (62.868,-0.00013)
v1: Removing PWL point (62.879,4e-05)
v1: Removing PWL point (62.901,-0.00024)
v1: Removing PWL point (62.923,0)
v1: Removing PWL point (62.946,-0.00024)
v1: Removing PWL point (62.961,-3e-05)
v1: Removing PWL point (62.974,-0.00011)
v1: Removing PWL point (62.98,8e-05)
v1: Removing PWL point (62.998,-1e-05)
v1: Removing PWL point (63.021,4e-05)
v1: Removing PWL point (63.033,-0.00012)
v1: Removing PWL point (63.049,-4e-05)
v1: Removing PWL point (63.058,-0.00021)
v1: Removing PWL point (63.081,0.00015)
v1: Removing PWL point (63.103,-0.00029)
v1: Removing PWL point (63.126,0.00038)
v1: Removing PWL point (63.148,9e-05)
v1: Removing PWL point (63.153,2e-05)
v1: Removing PWL point (63.163,-8e-05)
v1: Removing PWL point (63.178,-5e-05)
v1: Removing PWL point (63.208,5e-05)
v1: Removing PWL point (63.223,0.00016)
v1: Removing PWL point (63.253,1e-05)
v1: Removing PWL point (63.26,-0.00013)
v1: Removing PWL point (63.273,-0.00039)
v1: Removing PWL point (63.282,-4e-05)
v1: Removing PWL point (63.3,-0.00025)
v1: Removing PWL point (63.328,0.00074)
v1: Removing PWL point (63.333,-3e-05)
v1: Removing PWL point (63.349,0.0001)
v1: Removing PWL point (63.358,-0.00014)
v1: Removing PWL point (63.381,-6e-05)
v1: Removing PWL point (63.403,-9e-05)
v1: Removing PWL point (63.424,-0.00018)
v1: Removing PWL point (63.447,-7e-05)
v1: Removing PWL point (63.454,0)
v1: Removing PWL point (63.462,-9e-05)
v1: Removing PWL point (63.486,-3e-05)
v1: Removing PWL point (63.502,0.00014)
v1: Removing PWL point (63.531,-0.00014)
v1: Removing PWL point (63.54,-4e-05)
v1: Removing PWL point (63.561,-7e-05)
v1: Removing PWL point (63.583,-4e-05)
v1: Removing PWL point (63.606,-1e-05)
v1: Removing PWL point (63.628,-2e-05)
v1: Removing PWL point (63.651,-3e-05)
v1: Removing PWL point (63.656,0.00039)
v1: Removing PWL point (63.663,0.00024)
v1: Removing PWL point (63.681,0)
v1: Removing PWL point (63.704,-0.00017)
v1: Removing PWL point (63.733,-1e-05)
v1: Removing PWL point (63.741,-0.00029)
v1: Removing PWL point (63.763,0.00025)
v1: Removing PWL point (63.776,-3e-05)
v1: Removing PWL point (63.783,-0.00023)
v1: Removing PWL point (63.799,-7e-05)
v1: Removing PWL point (63.807,-6e-05)
v1: Removing PWL point (63.831,2e-05)
v1: Removing PWL point (63.836,0)
v1: Removing PWL point (63.85,5e-05)
v1: Removing PWL point (63.861,0.0001)
v1: Removing PWL point (63.884,4e-05)
v1: Removing PWL point (63.906,-0.00011)
v1: Removing PWL point (63.921,2e-05)
v1: Removing PWL point (63.943,-0.00031)
v1: Removing PWL point (63.956,0.00044)
v1: Removing PWL point (63.963,-0.00013)
v1: Removing PWL point (63.982,9e-05)
v1: Removing PWL point (64.002,-7e-05)
v1: Removing PWL point (64.009,-3e-05)
v1: Removing PWL point (64.015,-0.00015)
v1: Removing PWL point (64.042,-0.00024)
v1: Removing PWL point (64.053,0.00019)
v1: Removing PWL point (64.063,-0.00016)
v1: Removing PWL point (64.086,0.0001)
v1: Removing PWL point (64.108,8e-05)
v1: Removing PWL point (64.124,0.00014)
v1: Removing PWL point (64.135,-3e-05)
v1: Removing PWL point (64.144,0.00011)
v1: Removing PWL point (64.161,0.00026)
v1: Removing PWL point (64.183,9e-05)
v1: Removing PWL point (64.195,-2e-05)
v1: Removing PWL point (64.204,-0.00016)
v1: Removing PWL point (64.221,-0.00015)
v1: Removing PWL point (64.243,-6e-05)
v1: Removing PWL point (64.255,-0.00014)
v1: Removing PWL point (64.264,1e-05)
v1: Removing PWL point (64.281,8e-05)
v1: Removing PWL point (64.32,-3e-05)
v1: Removing PWL point (64.332,-4e-05)
v1: Removing PWL point (64.341,-2e-05)
v1: Removing PWL point (64.364,0.00012)
v1: Removing PWL point (64.386,-9e-05)
v1: Removing PWL point (64.408,-0.00035)
v1: Removing PWL point (64.423,-1e-05)
v1: Removing PWL point (64.446,8e-05)
v1: Removing PWL point (64.461,-0.00018)
v1: Removing PWL point (64.484,-3e-05)
v1: Removing PWL point (64.513,-2e-05)
v1: Removing PWL point (64.52,-4e-05)
v1: Removing PWL point (64.543,0.00011)
v1: Removing PWL point (64.566,5e-05)
v1: Removing PWL point (64.59,-0.0001)
v1: Removing PWL point (64.61,-1e-05)
v1: Removing PWL point (64.625,7e-05)
v1: Removing PWL point (64.642,2e-05)
v1: Removing PWL point (64.645,1e-05)
v1: Removing PWL point (64.664,3e-05)
v1: Removing PWL point (64.688,-2e-05)
v1: Removing PWL point (64.698,4e-05)
v1: Removing PWL point (64.713,3e-05)
v1: Removing PWL point (64.723,-2e-05)
v1: Removing PWL point (64.746,0)
v1: Removing PWL point (64.759,-2e-05)
v1: Removing PWL point (64.767,1e-05)
v1: Removing PWL point (64.791,-1e-05)
v1: Removing PWL point (64.813,-1e-05)
v1: Removing PWL point (64.827,-4e-05)
v1: Removing PWL point (64.842,0)
v1: Removing PWL point (64.875,-1e-05)
v1: Removing PWL point (64.886,2e-05)
v1: Removing PWL point (64.893,-6e-05)
v1: Removing PWL point (64.903,3e-05)
v1: Removing PWL point (64.926,-1e-05)
v1: Removing PWL point (64.939,4e-05)
v1: Removing PWL point (64.947,-3e-05)
v1: Removing PWL point (64.963,0)
v1: Removing PWL point (64.993,3e-05)
v1: Removing PWL point (64.998,2e-05)
v1: Removing PWL point (65.016,1e-05)
v1: Removing PWL point (65.023,-3e-05)
v1: Removing PWL point (65.045,-1e-05)
v1: Removing PWL point (65.069,1e-05)
v1: Removing PWL point (65.095,-3e-05)
v1: Removing PWL point (65.122,-3e-05)
v1: Removing PWL point (65.127,1e-05)
v1: Removing PWL point (65.151,5e-05)
v1: Removing PWL point (65.167,-2e-05)
v1: Removing PWL point (65.191,-1e-05)
v1: Removing PWL point (65.206,5e-05)
v1: Removing PWL point (65.227,-4e-05)
v1: Removing PWL point (65.257,-1e-05)
v1: Removing PWL point (65.272,-8e-05)
v1: Removing PWL point (65.293,0)
v1: Removing PWL point (65.325,1e-05)
v1: Removing PWL point (65.33,-4e-05)
v1: Removing PWL point (65.346,3e-05)
v1: Removing PWL point (65.351,0)
v1: Removing PWL point (65.369,-5e-05)
v1: Removing PWL point (65.397,0)
v1: Removing PWL point (65.407,-3e-05)
v1: Removing PWL point (65.429,-3e-05)
v1: Removing PWL point (65.443,-2e-05)
v1: Removing PWL point (65.474,-1e-05)
v1: Removing PWL point (65.497,-4e-05)
v1: Removing PWL point (65.507,-2e-05)
v1: Removing PWL point (65.527,3e-05)
v1: Removing PWL point (65.55,-3e-05)
v1: Removing PWL point (65.572,-4e-05)
v1: Removing PWL point (65.602,3e-05)
v1: Removing PWL point (65.609,-4e-05)
v1: Removing PWL point (65.625,3e-05)
v1: Removing PWL point (65.629,-5e-05)
v1: Removing PWL point (65.647,1e-05)
Direct Newton iteration for .op point succeeded.
Total elapsed time: 1.116 seconds.

